Molecule_11_uff_E_156.28_out
  PyMOL3.1          3D                             0

 20 21  0  0  0  0  0  0  0  0999 V2000
   10.5360   -8.9880    6.1770 O   0  0  0  0  0  0  0  0  0  0  0  0
   10.4320   -7.8250    5.8190 C   0  0  0  0  0  0  0  0  0  0  0  0
   11.0660   -7.3930    4.5210 C   0  0  0  0  0  0  0  0  0  0  0  0
   10.3740   -6.1240    4.0050 C   0  0  0  0  0  0  0  0  0  0  0  0
   10.3340   -5.0600    5.1210 C   0  0  0  0  0  0  0  0  0  0  0  0
    9.7350   -5.6620    6.3760 C   0  0  0  0  0  0  0  0  0  0  0  0
    9.8240   -6.9260    6.6400 N   0  0  0  0  0  0  0  0  0  0  0  0
    9.4150   -7.2670    7.5110 H   0  0  0  0  0  0  0  0  0  0  0  0
   11.0460   -5.6060    2.7420 C   0  0  0  0  0  0  0  0  0  0  0  0
   12.4440   -5.4320    2.6960 C   0  0  0  0  0  0  0  0  0  0  0  0
   13.0600   -4.9480    1.5390 C   0  0  0  0  0  0  0  0  0  0  0  0
   12.2930   -4.6340    0.4160 C   0  0  0  0  0  0  0  0  0  0  0  0
   12.8930   -4.1630   -0.7040 F   0  0  0  0  0  0  0  0  0  0  0  0
   10.9070   -4.8030    0.4470 C   0  0  0  0  0  0  0  0  0  0  0  0
   10.2800   -5.2860    1.6010 C   0  0  0  0  0  0  0  0  0  0  0  0
    8.9320   -5.4400    1.6050 F   0  0  0  0  0  0  0  0  0  0  0  0
    9.5270   -3.8610    4.6910 C   0  0  0  0  0  0  0  0  0  0  0  0
   10.0700   -2.7730    4.5650 O   0  0  0  0  0  0  0  0  0  0  0  0
    8.2050   -3.9850    4.4490 O   0  0  0  0  0  0  0  0  0  0  0  0
    7.5750   -4.0850    5.1770 H   0  0  0  0  0  0  0  0  0  0  0  0
  1  2  2  0  0  0  0
  2  3  1  0  0  0  0
  2  7  1  0  0  0  0
  3  4  1  0  0  0  0
  4  5  1  0  0  0  0
  4  9  1  0  0  0  0
  5  6  1  0  0  0  0
  5 17  1  0  0  0  0
  6  7  1  0  0  0  0
  7  8  1  0  0  0  0
  9 10  4  0  0  0  0
  9 15  4  0  0  0  0
 10 11  4  0  0  0  0
 11 12  4  0  0  0  0
 12 13  1  0  0  0  0
 12 14  4  0  0  0  0
 14 15  4  0  0  0  0
 15 16  1  0  0  0  0
 17 18  2  0  0  0  0
 17 19  1  0  0  0  0
 19 20  1  0  0  0  0
M  END
$$$$
