Molecule_1_uff_E_327.82_out
  PyMOL3.1          3D                             0

 26 28  0  0  0  0  0  0  0  0999 V2000
   10.9230   -6.4850    4.9470 C   0  0  0  0  0  0  0  0  0  0  0  0
   10.6170   -6.2700    6.1610 N   0  0  0  0  0  0  0  0  0  0  0  0
   10.6820   -5.3590    6.6150 H   0  0  0  0  0  0  0  0  0  0  0  0
   10.2040   -7.3620    6.7640 O   0  0  0  0  0  0  0  0  0  0  0  0
   10.1960   -8.4660    5.9310 C   0  0  0  0  0  0  0  0  0  0  0  0
   10.7350   -7.9170    4.5830 C   0  0  0  0  0  0  0  0  0  0  0  0
   11.0460   -9.6010    6.4720 C   0  0  0  0  0  0  0  0  0  0  0  0
   11.2380   -9.7190    7.8570 C   0  0  0  0  0  0  0  0  0  0  0  0
   11.9890  -10.7710    8.3790 C   0  0  0  0  0  0  0  0  0  0  0  0
   12.5740  -11.7130    7.5320 C   0  0  0  0  0  0  0  0  0  0  0  0
   13.3060  -12.7160    8.0820 F   0  0  0  0  0  0  0  0  0  0  0  0
   12.4090  -11.6140    6.1320 C   0  0  0  0  0  0  0  0  0  0  0  0
   11.6310  -10.5530    5.6090 C   0  0  0  0  0  0  0  0  0  0  0  0
   11.4470  -10.4380    4.2690 F   0  0  0  0  0  0  0  0  0  0  0  0
   13.0460  -12.6100    5.2200 C   0  0  0  0  0  0  0  0  0  0  0  0
   12.3660  -13.4580    4.6570 O   0  0  0  0  0  0  0  0  0  0  0  0
   14.3810  -12.5960    5.0170 O   0  0  0  0  0  0  0  0  0  0  0  0
   14.8890  -11.7740    5.0720 H   0  0  0  0  0  0  0  0  0  0  0  0
   11.4220   -5.4260    4.0200 C   0  0  0  0  0  0  0  0  0  0  0  0
   11.0530   -4.0820    4.2170 C   0  0  0  0  0  0  0  0  0  0  0  0
   11.5150   -3.0830    3.3540 C   0  0  0  0  0  0  0  0  0  0  0  0
   12.3540   -3.3990    2.2790 C   0  0  0  0  0  0  0  0  0  0  0  0
   12.7290   -4.7440    2.0770 C   0  0  0  0  0  0  0  0  0  0  0  0
   12.2660   -5.7460    2.9420 C   0  0  0  0  0  0  0  0  0  0  0  0
   12.7790   -2.3940    1.4640 O   0  0  0  0  0  0  0  0  0  0  0  0
   13.4350   -1.2490    1.8750 C   0  0  0  0  0  0  0  0  0  0  0  0
  1  2  1  0  0  0  0
  1  6  1  0  0  0  0
  1 19  1  0  0  0  0
  2  3  1  0  0  0  0
  2  4  1  0  0  0  0
  4  5  1  0  0  0  0
  5  6  1  0  0  0  0
  5  7  1  0  0  0  0
  7  8  4  0  0  0  0
  7 13  4  0  0  0  0
  8  9  4  0  0  0  0
  9 10  4  0  0  0  0
 10 11  1  0  0  0  0
 10 12  4  0  0  0  0
 12 13  4  0  0  0  0
 12 15  1  0  0  0  0
 13 14  1  0  0  0  0
 15 16  2  0  0  0  0
 15 17  1  0  0  0  0
 17 18  1  0  0  0  0
 19 20  4  0  0  0  0
 19 24  4  0  0  0  0
 20 21  4  0  0  0  0
 21 22  4  0  0  0  0
 22 23  4  0  0  0  0
 22 25  1  0  0  0  0
 23 24  4  0  0  0  0
 25 26  1  0  0  0  0
M  END
$$$$
