Molecule_10_uff_E_368.20_out
  PyMOL3.1          3D                             0

 20 21  0  0  0  0  0  0  0  0999 V2000
   11.1720   -9.7770    5.9340 C   0  0  0  0  0  0  0  0  0  0  0  0
   11.7750  -10.4880    4.8760 C   0  0  0  0  0  0  0  0  0  0  0  0
   12.5970  -11.5840    5.1270 C   0  0  0  0  0  0  0  0  0  0  0  0
   12.8310  -11.9980    6.4330 C   0  0  0  0  0  0  0  0  0  0  0  0
   12.2370  -11.3300    7.5020 C   0  0  0  0  0  0  0  0  0  0  0  0
   12.4690  -11.7940    8.7560 F   0  0  0  0  0  0  0  0  0  0  0  0
   11.3900  -10.2160    7.2820 C   0  0  0  0  0  0  0  0  0  0  0  0
   10.3960   -8.5490    5.5930 C   0  0  0  0  0  0  0  0  0  0  0  0
    9.5850   -8.3540    4.4840 C   0  0  0  0  0  0  0  0  0  0  0  0
    9.1280   -7.0560    4.5690 C   0  0  0  0  0  0  0  0  0  0  0  0
    9.7020   -6.5270    5.7070 C   0  0  0  0  0  0  0  0  0  0  0  0
   10.4460   -7.4350    6.2880 O   0  0  0  0  0  0  0  0  0  0  0  0
    9.5580   -5.1570    6.2150 C   0  0  0  0  0  0  0  0  0  0  0  0
   10.3780   -4.7010    7.0010 O   0  0  0  0  0  0  0  0  0  0  0  0
    8.5020   -4.4090    5.8310 O   0  0  0  0  0  0  0  0  0  0  0  0
    7.6340   -4.8060    5.6730 H   0  0  0  0  0  0  0  0  0  0  0  0
   10.7250   -9.5840    8.4710 C   0  0  0  0  0  0  0  0  0  0  0  0
   11.3860   -9.0800    9.3650 O   0  0  0  0  0  0  0  0  0  0  0  0
    9.3800   -9.4950    8.5340 O   0  0  0  0  0  0  0  0  0  0  0  0
    8.8900   -9.8890    9.2710 H   0  0  0  0  0  0  0  0  0  0  0  0
  1  2  4  0  0  0  0
  1  7  4  0  0  0  0
  1  8  1  0  0  0  0
  2  3  4  0  0  0  0
  3  4  4  0  0  0  0
  4  5  4  0  0  0  0
  5  6  1  0  0  0  0
  5  7  4  0  0  0  0
  7 17  1  0  0  0  0
  8  9  4  0  0  0  0
  8 12  4  0  0  0  0
  9 10  4  0  0  0  0
 10 11  4  0  0  0  0
 11 12  4  0  0  0  0
 11 13  1  0  0  0  0
 13 14  2  0  0  0  0
 13 15  1  0  0  0  0
 15 16  1  0  0  0  0
 17 18  2  0  0  0  0
 17 19  1  0  0  0  0
 19 20  1  0  0  0  0
M  END
$$$$
