Molecule_19_uff_E_391.72_out
  PyMOL3.1          3D                             0

 19 20  0  0  0  0  0  0  0  0999 V2000
   10.6600   -9.0060    6.1260 C   0  0  0  0  0  0  0  0  0  0  0  0
   10.6200   -7.6640    5.4730 C   0  0  0  0  0  0  0  0  0  0  0  0
   11.1250   -7.4010    4.2890 O   0  0  0  0  0  0  0  0  0  0  0  0
   10.8980   -6.1370    3.9890 C   0  0  0  0  0  0  0  0  0  0  0  0
   10.2320   -5.5190    5.0540 C   0  0  0  0  0  0  0  0  0  0  0  0
   10.0580   -6.5220    5.9980 C   0  0  0  0  0  0  0  0  0  0  0  0
   11.3030   -5.5540    2.6900 C   0  0  0  0  0  0  0  0  0  0  0  0
   12.6650   -5.3200    2.4390 C   0  0  0  0  0  0  0  0  0  0  0  0
   13.0720   -4.7620    1.2220 C   0  0  0  0  0  0  0  0  0  0  0  0
   12.1280   -4.4630    0.2380 C   0  0  0  0  0  0  0  0  0  0  0  0
   10.7750   -4.7220    0.4640 C   0  0  0  0  0  0  0  0  0  0  0  0
   10.3580   -5.2640    1.6830 C   0  0  0  0  0  0  0  0  0  0  0  0
    9.0430   -5.5540    1.8550 F   0  0  0  0  0  0  0  0  0  0  0  0
    9.8520   -4.0850    5.1880 C   0  0  0  0  0  0  0  0  0  0  0  0
   10.6840   -3.2100    5.0130 O   0  0  0  0  0  0  0  0  0  0  0  0
    8.6010   -3.7380    5.5540 O   0  0  0  0  0  0  0  0  0  0  0  0
    7.9900   -3.3390    4.9190 H   0  0  0  0  0  0  0  0  0  0  0  0
    9.4830   -6.4370    7.2150 O   0  0  0  0  0  0  0  0  0  0  0  0
    8.5450   -6.2510    7.3380 H   0  0  0  0  0  0  0  0  0  0  0  0
  1  2  1  0  0  0  0
  2  3  4  0  0  0  0
  2  6  4  0  0  0  0
  3  4  4  0  0  0  0
  4  5  4  0  0  0  0
  4  7  1  0  0  0  0
  5  6  4  0  0  0  0
  5 14  1  0  0  0  0
  6 18  1  0  0  0  0
  7  8  4  0  0  0  0
  7 12  4  0  0  0  0
  8  9  4  0  0  0  0
  9 10  4  0  0  0  0
 10 11  4  0  0  0  0
 11 12  4  0  0  0  0
 12 13  1  0  0  0  0
 14 15  2  0  0  0  0
 14 16  1  0  0  0  0
 16 17  1  0  0  0  0
 18 19  1  0  0  0  0
M  END
$$$$
