Molecule_25_uff_E_285.56_out
  PyMOL3.1          3D                             0

 20 21  0  0  0  0  0  0  0  0999 V2000
    8.5410   -4.4000    2.3690 C   0  0  0  0  0  0  0  0  0  0  0  0
    9.6720   -4.9980    3.0540 N   0  0  0  0  0  0  0  0  0  0  0  0
   10.8400   -5.2720    2.4570 C   0  0  0  0  0  0  0  0  0  0  0  0
   11.0520   -5.0280    1.2770 O   0  0  0  0  0  0  0  0  0  0  0  0
   11.8680   -5.8170    3.3710 C   0  0  0  0  0  0  0  0  0  0  0  0
   11.0560   -6.0190    4.6820 C   0  0  0  0  0  0  0  0  0  0  0  0
    9.6840   -5.3030    4.4620 C   0  0  0  0  0  0  0  0  0  0  0  0
   10.8440   -7.5000    4.9810 C   0  0  0  0  0  0  0  0  0  0  0  0
    9.7830   -8.2140    4.3830 C   0  0  0  0  0  0  0  0  0  0  0  0
    9.5910   -9.5680    4.6730 C   0  0  0  0  0  0  0  0  0  0  0  0
   10.4460  -10.2260    5.5590 C   0  0  0  0  0  0  0  0  0  0  0  0
   10.2530  -11.5390    5.8380 F   0  0  0  0  0  0  0  0  0  0  0  0
   11.5010   -9.5310    6.1580 C   0  0  0  0  0  0  0  0  0  0  0  0
   12.3280  -10.1720    7.0220 F   0  0  0  0  0  0  0  0  0  0  0  0
   11.7030   -8.1770    5.8740 C   0  0  0  0  0  0  0  0  0  0  0  0
   12.7320   -7.5260    6.4750 F   0  0  0  0  0  0  0  0  0  0  0  0
    9.5660   -4.0370    5.2700 C   0  0  0  0  0  0  0  0  0  0  0  0
   10.5130   -3.2670    5.3370 O   0  0  0  0  0  0  0  0  0  0  0  0
    8.4190   -3.7530    5.9240 O   0  0  0  0  0  0  0  0  0  0  0  0
    8.4320   -3.4700    6.8500 H   0  0  0  0  0  0  0  0  0  0  0  0
  1  2  1  0  0  0  0
  2  3  1  0  0  0  0
  2  7  1  0  0  0  0
  3  4  2  0  0  0  0
  3  5  1  0  0  0  0
  5  6  1  0  0  0  0
  6  7  1  0  0  0  0
  6  8  1  0  0  0  0
  7 17  1  0  0  0  0
  8  9  4  0  0  0  0
  8 15  4  0  0  0  0
  9 10  4  0  0  0  0
 10 11  4  0  0  0  0
 11 12  1  0  0  0  0
 11 13  4  0  0  0  0
 13 14  1  0  0  0  0
 13 15  4  0  0  0  0
 15 16  1  0  0  0  0
 17 18  2  0  0  0  0
 17 19  1  0  0  0  0
 19 20  1  0  0  0  0
M  END
$$$$
