Molecule_3_uff_E_318.77_out
  PyMOL3.1          3D                             0

 22 23  0  0  0  0  0  0  0  0999 V2000
   10.9480   -7.3660    4.8940 C   0  0  0  0  0  0  0  0  0  0  0  0
   11.6720   -6.9260    3.7740 C   0  0  0  0  0  0  0  0  0  0  0  0
   11.6770   -5.5830    3.4130 C   0  0  0  0  0  0  0  0  0  0  0  0
   10.9770   -4.6440    4.1680 C   0  0  0  0  0  0  0  0  0  0  0  0
   11.0220   -3.3420    3.7900 F   0  0  0  0  0  0  0  0  0  0  0  0
   10.2450   -5.0480    5.3070 C   0  0  0  0  0  0  0  0  0  0  0  0
   10.2270   -6.4200    5.6590 C   0  0  0  0  0  0  0  0  0  0  0  0
    9.5440   -6.8150    6.7610 F   0  0  0  0  0  0  0  0  0  0  0  0
   11.0150   -8.8060    5.2570 C   0  0  0  0  0  0  0  0  0  0  0  0
   12.1140   -9.5450    5.6800 C   0  0  0  0  0  0  0  0  0  0  0  0
   11.6750  -10.8450    5.7990 C   0  0  0  0  0  0  0  0  0  0  0  0
   10.3390  -10.8290    5.4510 C   0  0  0  0  0  0  0  0  0  0  0  0
    9.9760   -9.6050    5.1540 O   0  0  0  0  0  0  0  0  0  0  0  0
    9.4190  -12.0040    5.3650 C   0  0  0  0  0  0  0  0  0  0  0  0
    8.5750  -12.1010    6.6060 C   0  0  0  0  0  0  0  0  0  0  0  0
    7.9140  -13.1090    6.8120 O   0  0  0  0  0  0  0  0  0  0  0  0
    8.5550  -11.0910    7.5020 O   0  0  0  0  0  0  0  0  0  0  0  0
    8.0080  -10.3060    7.3510 H   0  0  0  0  0  0  0  0  0  0  0  0
    9.5230   -4.0360    6.1340 C   0  0  0  0  0  0  0  0  0  0  0  0
    8.4330   -3.6080    5.7760 O   0  0  0  0  0  0  0  0  0  0  0  0
   10.0500   -3.5990    7.2970 O   0  0  0  0  0  0  0  0  0  0  0  0
   10.9900   -3.3800    7.3710 H   0  0  0  0  0  0  0  0  0  0  0  0
  1  2  4  0  0  0  0
  1  7  4  0  0  0  0
  1  9  1  0  0  0  0
  2  3  4  0  0  0  0
  3  4  4  0  0  0  0
  4  5  1  0  0  0  0
  4  6  4  0  0  0  0
  6  7  4  0  0  0  0
  6 19  1  0  0  0  0
  7  8  1  0  0  0  0
  9 10  4  0  0  0  0
  9 13  4  0  0  0  0
 10 11  4  0  0  0  0
 11 12  4  0  0  0  0
 12 13  4  0  0  0  0
 12 14  1  0  0  0  0
 14 15  1  0  0  0  0
 15 16  2  0  0  0  0
 15 17  1  0  0  0  0
 17 18  1  0  0  0  0
 19 20  2  0  0  0  0
 19 21  1  0  0  0  0
 21 22  1  0  0  0  0
M  END
$$$$
