Molecule_4_uff_E_225.35_out
  PyMOL3.1          3D                             0

 26 28  0  0  0  0  0  0  0  0999 V2000
   12.7010   -4.8480    1.4170 C   0  0  0  0  0  0  0  0  0  0  0  0
   12.9890   -5.3220    2.7060 C   0  0  0  0  0  0  0  0  0  0  0  0
   11.9650   -5.7760    3.5420 C   0  0  0  0  0  0  0  0  0  0  0  0
   10.6290   -5.7780    3.1040 C   0  0  0  0  0  0  0  0  0  0  0  0
   10.3310   -5.2860    1.8070 C   0  0  0  0  0  0  0  0  0  0  0  0
   11.3690   -4.8360    0.9740 C   0  0  0  0  0  0  0  0  0  0  0  0
    8.9110   -5.2140    1.2960 C   0  0  0  0  0  0  0  0  0  0  0  0
    7.8800   -5.2560    2.4280 C   0  0  0  0  0  0  0  0  0  0  0  0
    8.1640   -6.4520    3.3200 C   0  0  0  0  0  0  0  0  0  0  0  0
    9.5250   -6.2860    4.0330 C   0  0  0  0  0  0  0  0  0  0  0  0
    9.8790   -7.6070    4.7050 C   0  0  0  0  0  0  0  0  0  0  0  0
    9.9650   -8.7840    3.9430 C   0  0  0  0  0  0  0  0  0  0  0  0
   10.2870   -9.9960    4.5490 C   0  0  0  0  0  0  0  0  0  0  0  0
   10.5110  -10.0620    5.9260 C   0  0  0  0  0  0  0  0  0  0  0  0
   10.8150  -11.2650    6.4780 F   0  0  0  0  0  0  0  0  0  0  0  0
   10.4220   -8.8990    6.7200 C   0  0  0  0  0  0  0  0  0  0  0  0
   10.1120   -7.6670    6.0960 C   0  0  0  0  0  0  0  0  0  0  0  0
   10.0110   -6.5340    6.8370 F   0  0  0  0  0  0  0  0  0  0  0  0
   10.6440   -8.9670    8.1950 C   0  0  0  0  0  0  0  0  0  0  0  0
   11.7440   -9.2660    8.6410 O   0  0  0  0  0  0  0  0  0  0  0  0
    9.6360   -8.7080    9.0550 O   0  0  0  0  0  0  0  0  0  0  0  0
    8.7620   -9.1100    8.9420 H   0  0  0  0  0  0  0  0  0  0  0  0
   13.7880   -4.3510    0.5340 C   0  0  0  0  0  0  0  0  0  0  0  0
   13.7380   -4.5420   -0.6730 O   0  0  0  0  0  0  0  0  0  0  0  0
   14.8440   -3.6920    1.0610 O   0  0  0  0  0  0  0  0  0  0  0  0
   15.7530   -3.9340    0.8300 H   0  0  0  0  0  0  0  0  0  0  0  0
  1  2  4  0  0  0  0
  1  6  4  0  0  0  0
  1 23  1  0  0  0  0
  2  3  4  0  0  0  0
  3  4  4  0  0  0  0
  4  5  4  0  0  0  0
  4 10  1  0  0  0  0
  5  6  4  0  0  0  0
  5  7  1  0  0  0  0
  7  8  1  0  0  0  0
  8  9  1  0  0  0  0
  9 10  1  0  0  0  0
 10 11  1  0  0  0  0
 11 12  4  0  0  0  0
 11 17  4  0  0  0  0
 12 13  4  0  0  0  0
 13 14  4  0  0  0  0
 14 15  1  0  0  0  0
 14 16  4  0  0  0  0
 16 17  4  0  0  0  0
 16 19  1  0  0  0  0
 17 18  1  0  0  0  0
 19 20  2  0  0  0  0
 19 21  1  0  0  0  0
 21 22  1  0  0  0  0
 23 24  2  0  0  0  0
 23 25  1  0  0  0  0
 25 26  1  0  0  0  0
M  END
$$$$
