oxa23_Molecule_40_uff_E=393.09_0
 OpenBabel08022514233D

 26 29  0  0  0  0  0  0  0  0999 V2000
   10.2270   -4.3650    4.7010 C   0  0  0  0  0
   10.4870   -5.7030    4.3190 C   0  0  0  0  0
   10.0860   -6.7440    5.0910 F   0  0  0  0  0
   11.1870   -5.9890    3.1490 C   0  0  0  0  0
   11.6340   -4.9650    2.3260 C   0  0  0  0  0
   11.3840   -3.6270    2.6540 C   0  0  0  0  0
   10.6880   -3.3110    3.8450 C   0  0  0  0  0
   10.4460   -1.9370    4.1360 N   0  0  0  0  0
   11.2850   -0.9080    3.5530 C   0  0  0  0  0
   11.3690   -1.1070    2.0180 C   0  0  0  0  0
   12.4910   -0.2160    1.4300 C   0  0  0  0  0
   13.6670   -1.1380    1.4530 C   0  0  0  0  0
   13.3070   -2.4020    1.5910 C   0  0  0  0  0
   11.8280   -2.5480    1.6840 C   0  0  0  0  0
    9.6770   -1.6570    4.7550 H   0  0  0  0  0
   10.7260    0.4640    3.9060 C   0  0  0  0  0
    9.5480    0.9390    3.3040 C   0  0  0  0  0
    9.0490    2.2040    3.6370 C   0  0  0  0  0
    9.7220    3.0050    4.5650 C   0  0  0  0  0
    9.2370    4.2310    4.8840 F   0  0  0  0  0
   10.8960    2.5440    5.1630 C   0  0  0  0  0
   11.3980    1.2830    4.8380 C   0  0  0  0  0
    9.5120   -4.1210    6.0020 C   0  0  0  0  0
    8.4310   -3.5520    6.0330 O   0  0  0  0  0
   10.0790   -4.4940    7.1680 O   0  0  0  0  0
   10.9480   -4.1580    7.4320 H   0  0  0  0  0
  7  1  2  0  0  0
  2  1  1  0  0  0
  1 23  1  0  0  0
  4  2  2  0  0  0
  2  3  1  0  0  0
  5  4  1  0  0  0
  5  6  2  0  0  0
 14  6  1  0  0  0
  6  7  1  0  0  0
  7  8  1  0  0  0
  9  8  1  0  0  0
  8 15  1  0  0  0
 10  9  1  0  0  0
  9 16  1  0  0  0
 11 10  1  0  0  0
 14 10  1  0  0  0
 11 12  1  0  0  0
 12 13  1  0  0  0
 13 14  1  0  0  0
 17 16  1  0  0  0
 16 22  2  0  0  0
 17 18  2  0  0  0
 18 19  1  0  0  0
 19 20  1  0  0  0
 19 21  2  0  0  0
 22 21  1  0  0  0
 23 24  2  0  0  0
 23 25  1  0  0  0
 25 26  1  0  0  0
M  RAD 12   4   2   5   2   9   2  10   2  11   3  12   3  13   3  14   2  17   2  18   2  21   2  22   2
M  END
>  <Vina Binding Affinity>
-8.3

$$$$
