Molecule_5_uff_E_436.68_out
  PyMOL3.1          3D                             0

 23 26  0  0  0  0  0  0  0  0999 V2000
   10.4290   -7.4290    5.1060 C   0  0  0  0  0  0  0  0  0  0  0  0
    9.9790   -6.7440    6.2530 C   0  0  0  0  0  0  0  0  0  0  0  0
    9.9310   -5.3450    6.2750 C   0  0  0  0  0  0  0  0  0  0  0  0
   10.3260   -4.6110    5.1550 C   0  0  0  0  0  0  0  0  0  0  0  0
   10.7850   -5.2940    4.0050 C   0  0  0  0  0  0  0  0  0  0  0  0
   10.8430   -6.6910    3.9790 C   0  0  0  0  0  0  0  0  0  0  0  0
   11.1470   -4.4390    2.8390 C   0  0  0  0  0  0  0  0  0  0  0  0
   11.9480   -4.9010    1.8090 O   0  0  0  0  0  0  0  0  0  0  0  0
   12.6030   -3.8430    1.2990 C   0  0  0  0  0  0  0  0  0  0  0  0
   13.2830   -3.7850    0.0840 C   0  0  0  0  0  0  0  0  0  0  0  0
   13.3540   -4.8690   -0.7260 F   0  0  0  0  0  0  0  0  0  0  0  0
   13.8920   -2.5710   -0.2840 C   0  0  0  0  0  0  0  0  0  0  0  0
   13.8150   -1.4500    0.5730 C   0  0  0  0  0  0  0  0  0  0  0  0
   13.1410   -1.5470    1.8030 C   0  0  0  0  0  0  0  0  0  0  0  0
   13.0900   -0.4900    2.6510 F   0  0  0  0  0  0  0  0  0  0  0  0
   12.5300   -2.7570    2.1310 C   0  0  0  0  0  0  0  0  0  0  0  0
   11.8650   -3.1930    3.3790 C   0  0  0  0  0  0  0  0  0  0  0  0
   10.8340   -2.4020    4.1910 C   0  0  0  0  0  0  0  0  0  0  0  0
   10.2780   -3.2350    5.1760 O   0  0  0  0  0  0  0  0  0  0  0  0
   10.4450   -8.9140    5.0830 C   0  0  0  0  0  0  0  0  0  0  0  0
   11.4950   -9.5160    4.9100 O   0  0  0  0  0  0  0  0  0  0  0  0
    9.2950   -9.6080    5.2330 O   0  0  0  0  0  0  0  0  0  0  0  0
    8.9210  -10.1230    4.5040 H   0  0  0  0  0  0  0  0  0  0  0  0
  1  2  4  0  0  0  0
  1  6  4  0  0  0  0
  1 20  1  0  0  0  0
  2  3  4  0  0  0  0
  3  4  4  0  0  0  0
  4  5  4  0  0  0  0
  4 19  1  0  0  0  0
  5  6  4  0  0  0  0
  5  7  1  0  0  0  0
  7  8  1  0  0  0  0
  7 17  1  0  0  0  0
  8  9  1  0  0  0  0
  9 10  4  0  0  0  0
  9 16  4  0  0  0  0
 10 11  1  0  0  0  0
 10 12  4  0  0  0  0
 12 13  4  0  0  0  0
 13 14  4  0  0  0  0
 14 15  1  0  0  0  0
 14 16  4  0  0  0  0
 16 17  1  0  0  0  0
 17 18  1  0  0  0  0
 18 19  1  0  0  0  0
 20 21  2  0  0  0  0
 20 22  1  0  0  0  0
 22 23  1  0  0  0  0
M  END
$$$$
