MODEL 1
REMARK VINA RESULT:      -8.0      0.000      0.000
REMARK  5 active torsions:
REMARK  status: ('A' for Active; 'I' for Inactive)
REMARK    1  A    between atoms: C_2  and  O_3 
REMARK    2  A    between atoms: C_2  and  C_4 
REMARK    3  A    between atoms: C_13  and  C_14 
REMARK    4  A    between atoms: C_19  and  C_20 
REMARK    5  A    between atoms: C_20  and  O_22 
ROOT
HETATM    1  C   UNK N   1      12.701  -4.848   1.417  0.00  0.00     0.038 A 
HETATM    2  C   UNK N   1      12.989  -5.322   2.706  0.00  0.00     0.019 A 
HETATM    3  C   UNK N   1      11.965  -5.776   3.542  0.00  0.00     0.009 A 
HETATM    4  C   UNK N   1      10.629  -5.778   3.104  0.00  0.00    -0.043 A 
HETATM    5  C   UNK N   1      10.331  -5.286   1.807  0.00  0.00    -0.050 A 
HETATM    6  C   UNK N   1      11.369  -4.836   0.974  0.00  0.00     0.026 A 
HETATM    7  C   UNK N   1       8.911  -5.214   1.296  0.00  0.00     0.039 C 
HETATM    8  C   UNK N   1       7.880  -5.256   2.428  0.00  0.00     0.006 C 
HETATM    9  C   UNK N   1       8.164  -6.452   3.320  0.00  0.00     0.014 C 
HETATM   10  C   UNK N   1       9.525  -6.286   4.033  0.00  0.00     0.055 C 
ENDROOT
BRANCH  10  11
HETATM   11  C   UNK N   1       9.879  -7.607   4.705  0.00  0.00    -0.010 A 
HETATM   12  C   UNK N   1       9.965  -8.784   3.943  0.00  0.00     0.014 A 
HETATM   13  C   UNK N   1      10.287  -9.996   4.549  0.00  0.00     0.044 A 
HETATM   14  C   UNK N   1      10.511 -10.062   5.926  0.00  0.00     0.136 A 
HETATM   15  F   UNK N   1      10.815 -11.265   6.478  0.00  0.00    -0.205 F 
HETATM   16  C   UNK N   1      10.422  -8.899   6.720  0.00  0.00     0.115 A 
HETATM   17  C   UNK N   1      10.112  -7.667   6.096  0.00  0.00     0.143 A 
HETATM   18  F   UNK N   1      10.011  -6.534   6.837  0.00  0.00    -0.204 F 
BRANCH  16  19
HETATM   19  C   UNK N   1      10.644  -8.967   8.195  0.00  0.00     0.182 C 
HETATM   20  O   UNK N   1      11.744  -9.266   8.641  0.00  0.00    -0.646 OA
BRANCH  19  21
HETATM   21  O   UNK N   1       9.636  -8.708   9.055  0.00  0.00    -0.772 OA
HETATM   22  H   UNK N   1       8.762  -9.110   8.942  0.00  0.00     0.167 HD
ENDBRANCH  19  21
ENDBRANCH  16  19
ENDBRANCH  10  11
BRANCH   1  23
HETATM   23  C   UNK N   1      13.788  -4.351   0.534  0.00  0.00     0.176 C 
HETATM   24  O   UNK N   1      13.738  -4.542  -0.673  0.00  0.00    -0.646 OA
BRANCH  23  25
HETATM   25  O   UNK N   1      14.844  -3.692   1.061  0.00  0.00    -0.773 OA
HETATM   26  H   UNK N   1      15.753  -3.934   0.830  0.00  0.00     0.167 HD
ENDBRANCH  23  25
ENDBRANCH   1  23
TORSDOF 5
ENDMDL
MODEL 2
REMARK VINA RESULT:      -8.0      3.356      6.947
REMARK  5 active torsions:
REMARK  status: ('A' for Active; 'I' for Inactive)
REMARK    1  A    between atoms: C_2  and  O_3 
REMARK    2  A    between atoms: C_2  and  C_4 
REMARK    3  A    between atoms: C_13  and  C_14 
REMARK    4  A    between atoms: C_19  and  C_20 
REMARK    5  A    between atoms: C_20  and  O_22 
ROOT
HETATM    1  C   UNK N   1      10.430  -7.120   4.841  0.00  0.00     0.038 A 
HETATM    2  C   UNK N   1      11.692  -6.586   4.537  0.00  0.00     0.019 A 
HETATM    3  C   UNK N   1      11.883  -5.828   3.379  0.00  0.00     0.009 A 
HETATM    4  C   UNK N   1      10.814  -5.573   2.503  0.00  0.00    -0.043 A 
HETATM    5  C   UNK N   1       9.539  -6.122   2.798  0.00  0.00    -0.050 A 
HETATM    6  C   UNK N   1       9.358  -6.880   3.967  0.00  0.00     0.026 A 
HETATM    7  C   UNK N   1       8.362  -5.929   1.871  0.00  0.00     0.039 C 
HETATM    8  C   UNK N   1       8.792  -5.534   0.455  0.00  0.00     0.006 C 
HETATM    9  C   UNK N   1       9.732  -4.344   0.529  0.00  0.00     0.014 C 
HETATM   10  C   UNK N   1      11.044  -4.733   1.245  0.00  0.00     0.055 C 
ENDROOT
BRANCH  10  11
HETATM   11  C   UNK N   1      11.837  -3.461   1.521  0.00  0.00    -0.010 A 
HETATM   12  C   UNK N   1      12.978  -3.163   0.757  0.00  0.00     0.014 A 
HETATM   13  C   UNK N   1      13.709  -2.003   1.002  0.00  0.00     0.044 A 
HETATM   14  C   UNK N   1      13.329  -1.129   2.022  0.00  0.00     0.136 A 
HETATM   15  F   UNK N   1      14.074  -0.013   2.233  0.00  0.00    -0.205 F 
HETATM   16  C   UNK N   1      12.193  -1.405   2.814  0.00  0.00     0.115 A 
HETATM   17  C   UNK N   1      11.444  -2.576   2.548  0.00  0.00     0.143 A 
HETATM   18  F   UNK N   1      10.352  -2.871   3.299  0.00  0.00    -0.204 F 
BRANCH  16  19
HETATM   19  C   UNK N   1      11.792  -0.482   3.917  0.00  0.00     0.182 C 
HETATM   20  O   UNK N   1      11.241   0.581   3.663  0.00  0.00    -0.646 OA
BRANCH  19  21
HETATM   21  O   UNK N   1      12.039  -0.802   5.205  0.00  0.00    -0.772 OA
HETATM   22  H   UNK N   1      11.327  -1.086   5.798  0.00  0.00     0.167 HD
ENDBRANCH  19  21
ENDBRANCH  16  19
ENDBRANCH  10  11
BRANCH   1  23
HETATM   23  C   UNK N   1      10.230  -7.940   6.063  0.00  0.00     0.176 C 
HETATM   24  O   UNK N   1      10.603  -9.105   6.092  0.00  0.00    -0.646 OA
BRANCH  23  25
HETATM   25  O   UNK N   1       9.627  -7.406   7.149  0.00  0.00    -0.773 OA
HETATM   26  H   UNK N   1       8.698  -7.136   7.124  0.00  0.00     0.167 HD
ENDBRANCH  23  25
ENDBRANCH   1  23
TORSDOF 5
ENDMDL
MODEL 3
REMARK VINA RESULT:      -7.8      3.703      6.905
REMARK  5 active torsions:
REMARK  status: ('A' for Active; 'I' for Inactive)
REMARK    1  A    between atoms: C_2  and  O_3 
REMARK    2  A    between atoms: C_2  and  C_4 
REMARK    3  A    between atoms: C_13  and  C_14 
REMARK    4  A    between atoms: C_19  and  C_20 
REMARK    5  A    between atoms: C_20  and  O_22 
ROOT
HETATM    1  C   UNK N   1      11.022 -12.801   4.301  0.00  0.00     0.038 A 
HETATM    2  C   UNK N   1      10.197 -11.743   3.886  0.00  0.00     0.019 A 
HETATM    3  C   UNK N   1      10.054 -10.602   4.678  0.00  0.00     0.009 A 
HETATM    4  C   UNK N   1      10.741 -10.483   5.899  0.00  0.00    -0.043 A 
HETATM    5  C   UNK N   1      11.564 -11.556   6.330  0.00  0.00    -0.050 A 
HETATM    6  C   UNK N   1      11.704 -12.698   5.523  0.00  0.00     0.026 A 
HETATM    7  C   UNK N   1      12.289 -11.513   7.655  0.00  0.00     0.039 C 
HETATM    8  C   UNK N   1      11.684 -10.488   8.619  0.00  0.00     0.006 C 
HETATM    9  C   UNK N   1      11.578  -9.144   7.920  0.00  0.00     0.014 C 
HETATM   10  C   UNK N   1      10.576  -9.221   6.746  0.00  0.00     0.055 C 
ENDROOT
BRANCH  10  11
HETATM   11  C   UNK N   1      10.695  -7.940   5.929  0.00  0.00    -0.010 A 
HETATM   12  C   UNK N   1      11.491  -7.916   4.771  0.00  0.00     0.014 A 
HETATM   13  C   UNK N   1      11.606  -6.750   4.018  0.00  0.00     0.044 A 
HETATM   14  C   UNK N   1      10.948  -5.583   4.413  0.00  0.00     0.136 A 
HETATM   15  F   UNK N   1      11.095  -4.466   3.654  0.00  0.00    -0.205 F 
HETATM   16  C   UNK N   1      10.151  -5.573   5.577  0.00  0.00     0.115 A 
HETATM   17  C   UNK N   1      10.022  -6.766   6.328  0.00  0.00     0.143 A 
HETATM   18  F   UNK N   1       9.268  -6.781   7.457  0.00  0.00    -0.204 F 
BRANCH  16  19
HETATM   19  C   UNK N   1       9.459  -4.323   6.013  0.00  0.00     0.182 C 
HETATM   20  O   UNK N   1       8.450  -3.942   5.435  0.00  0.00    -0.646 OA
BRANCH  19  21
HETATM   21  O   UNK N   1       9.940  -3.595   7.043  0.00  0.00    -0.772 OA
HETATM   22  H   UNK N   1      10.349  -2.729   6.899  0.00  0.00     0.167 HD
ENDBRANCH  19  21
ENDBRANCH  16  19
ENDBRANCH  10  11
BRANCH   1  23
HETATM   23  C   UNK N   1      11.161 -14.023   3.467  0.00  0.00     0.176 C 
HETATM   24  O   UNK N   1      12.271 -14.443   3.170  0.00  0.00    -0.646 OA
BRANCH  23  25
HETATM   25  O   UNK N   1      10.062 -14.673   3.024  0.00  0.00    -0.773 OA
HETATM   26  H   UNK N   1       9.412 -14.230   2.458  0.00  0.00     0.167 HD
ENDBRANCH  23  25
ENDBRANCH   1  23
TORSDOF 5
ENDMDL
MODEL 4
REMARK VINA RESULT:      -7.6      3.233      4.779
REMARK  5 active torsions:
REMARK  status: ('A' for Active; 'I' for Inactive)
REMARK    1  A    between atoms: C_2  and  O_3 
REMARK    2  A    between atoms: C_2  and  C_4 
REMARK    3  A    between atoms: C_13  and  C_14 
REMARK    4  A    between atoms: C_19  and  C_20 
REMARK    5  A    between atoms: C_20  and  O_22 
ROOT
HETATM    1  C   UNK N   1       8.719  -3.995  -0.841  0.00  0.00     0.038 A 
HETATM    2  C   UNK N   1       8.445  -5.111  -0.035  0.00  0.00     0.019 A 
HETATM    3  C   UNK N   1       9.416  -5.616   0.833  0.00  0.00     0.009 A 
HETATM    4  C   UNK N   1      10.681  -5.011   0.926  0.00  0.00    -0.043 A 
HETATM    5  C   UNK N   1      10.968  -3.891   0.103  0.00  0.00    -0.050 A 
HETATM    6  C   UNK N   1       9.982  -3.389  -0.763  0.00  0.00     0.026 A 
HETATM    7  C   UNK N   1      12.325  -3.227   0.118  0.00  0.00     0.039 C 
HETATM    8  C   UNK N   1      13.413  -4.133   0.700  0.00  0.00     0.006 C 
HETATM    9  C   UNK N   1      12.959  -4.659   2.051  0.00  0.00     0.014 C 
HETATM   10  C   UNK N   1      11.726  -5.576   1.889  0.00  0.00     0.055 C 
ENDROOT
BRANCH  10  11
HETATM   11  C   UNK N   1      11.159  -5.867   3.273  0.00  0.00    -0.010 A 
HETATM   12  C   UNK N   1      11.159  -7.181   3.772  0.00  0.00     0.014 A 
HETATM   13  C   UNK N   1      10.642  -7.456   5.036  0.00  0.00     0.044 A 
HETATM   14  C   UNK N   1      10.099  -6.434   5.817  0.00  0.00     0.136 A 
HETATM   15  F   UNK N   1       9.598  -6.747   7.040  0.00  0.00    -0.205 F 
HETATM   16  C   UNK N   1      10.074  -5.106   5.339  0.00  0.00     0.115 A 
HETATM   17  C   UNK N   1      10.618  -4.830   4.062  0.00  0.00     0.143 A 
HETATM   18  F   UNK N   1      10.601  -3.562   3.575  0.00  0.00    -0.204 F 
BRANCH  16  19
HETATM   19  C   UNK N   1       9.480  -4.012   6.164  0.00  0.00     0.182 C 
HETATM   20  O   UNK N   1       8.412  -3.507   5.843  0.00  0.00    -0.646 OA
BRANCH  19  21
HETATM   21  O   UNK N   1      10.113  -3.562   7.268  0.00  0.00    -0.772 OA
HETATM   22  H   UNK N   1      11.050  -3.753   7.423  0.00  0.00     0.167 HD
ENDBRANCH  19  21
ENDBRANCH  16  19
ENDBRANCH  10  11
BRANCH   1  23
HETATM   23  C   UNK N   1       7.692  -3.467  -1.776  0.00  0.00     0.176 C 
HETATM   24  O   UNK N   1       7.875  -2.407  -2.359  0.00  0.00    -0.646 OA
BRANCH  23  25
HETATM   25  O   UNK N   1       6.544  -4.151  -1.982  0.00  0.00    -0.773 OA
HETATM   26  H   UNK N   1       6.278  -4.872  -1.393  0.00  0.00     0.167 HD
ENDBRANCH  23  25
ENDBRANCH   1  23
TORSDOF 5
ENDMDL
MODEL 5
REMARK VINA RESULT:      -7.6      4.635      8.010
REMARK  5 active torsions:
REMARK  status: ('A' for Active; 'I' for Inactive)
REMARK    1  A    between atoms: C_2  and  O_3 
REMARK    2  A    between atoms: C_2  and  C_4 
REMARK    3  A    between atoms: C_13  and  C_14 
REMARK    4  A    between atoms: C_19  and  C_20 
REMARK    5  A    between atoms: C_20  and  O_22 
ROOT
HETATM    1  C   UNK N   1       9.959  -4.651   4.829  0.00  0.00     0.038 A 
HETATM    2  C   UNK N   1       8.929  -4.036   4.100  0.00  0.00     0.019 A 
HETATM    3  C   UNK N   1       9.053  -3.839   2.723  0.00  0.00     0.009 A 
HETATM    4  C   UNK N   1      10.205  -4.264   2.038  0.00  0.00    -0.043 A 
HETATM    5  C   UNK N   1      11.255  -4.873   2.772  0.00  0.00    -0.050 A 
HETATM    6  C   UNK N   1      11.117  -5.069   4.157  0.00  0.00     0.026 A 
HETATM    7  C   UNK N   1      12.540  -5.305   2.105  0.00  0.00     0.039 C 
HETATM    8  C   UNK N   1      12.759  -4.612   0.757  0.00  0.00     0.006 C 
HETATM    9  C   UNK N   1      11.519  -4.782  -0.103  0.00  0.00     0.014 C 
HETATM   10  C   UNK N   1      10.317  -4.045   0.528  0.00  0.00     0.055 C 
ENDROOT
BRANCH  10  11
HETATM   11  C   UNK N   1       9.055  -4.454  -0.224  0.00  0.00    -0.010 A 
HETATM   12  C   UNK N   1       8.487  -5.721  -0.008  0.00  0.00     0.014 A 
HETATM   13  C   UNK N   1       7.335  -6.103  -0.691  0.00  0.00     0.044 A 
HETATM   14  C   UNK N   1       6.738  -5.241  -1.613  0.00  0.00     0.136 A 
HETATM   15  F   UNK N   1       5.620  -5.656  -2.262  0.00  0.00    -0.205 F 
HETATM   16  C   UNK N   1       7.291  -3.966  -1.859  0.00  0.00     0.115 A 
HETATM   17  C   UNK N   1       8.452  -3.576  -1.148  0.00  0.00     0.143 A 
HETATM   18  F   UNK N   1       9.009  -2.358  -1.372  0.00  0.00    -0.204 F 
BRANCH  16  19
HETATM   19  C   UNK N   1       6.667  -3.046  -2.856  0.00  0.00     0.182 C 
HETATM   20  O   UNK N   1       5.586  -2.521  -2.621  0.00  0.00    -0.646 OA
BRANCH  19  21
HETATM   21  O   UNK N   1       7.280  -2.787  -4.031  0.00  0.00    -0.772 OA
HETATM   22  H   UNK N   1       6.861  -3.007  -4.876  0.00  0.00     0.167 HD
ENDBRANCH  19  21
ENDBRANCH  16  19
ENDBRANCH  10  11
BRANCH   1  23
HETATM   23  C   UNK N   1       9.834  -4.846   6.297  0.00  0.00     0.176 C 
HETATM   24  O   UNK N   1       9.598  -5.956   6.754  0.00  0.00    -0.646 OA
BRANCH  23  25
HETATM   25  O   UNK N   1       9.972  -3.795   7.136  0.00  0.00    -0.773 OA
HETATM   26  H   UNK N   1      10.795  -3.287   7.173  0.00  0.00     0.167 HD
ENDBRANCH  23  25
ENDBRANCH   1  23
TORSDOF 5
ENDMDL
MODEL 6
REMARK VINA RESULT:      -7.6      2.016      2.476
REMARK  5 active torsions:
REMARK  status: ('A' for Active; 'I' for Inactive)
REMARK    1  A    between atoms: C_2  and  O_3 
REMARK    2  A    between atoms: C_2  and  C_4 
REMARK    3  A    between atoms: C_13  and  C_14 
REMARK    4  A    between atoms: C_19  and  C_20 
REMARK    5  A    between atoms: C_20  and  O_22 
ROOT
HETATM    1  C   UNK N   1      12.219  -4.739   0.657  0.00  0.00     0.038 A 
HETATM    2  C   UNK N   1      12.955  -5.154   1.778  0.00  0.00     0.019 A 
HETATM    3  C   UNK N   1      12.304  -5.524   2.957  0.00  0.00     0.009 A 
HETATM    4  C   UNK N   1      10.901  -5.500   3.042  0.00  0.00    -0.043 A 
HETATM    5  C   UNK N   1      10.153  -5.067   1.916  0.00  0.00    -0.050 A 
HETATM    6  C   UNK N   1      10.818  -4.701   0.734  0.00  0.00     0.026 A 
HETATM    7  C   UNK N   1       8.646  -4.969   1.959  0.00  0.00     0.039 C 
HETATM    8  C   UNK N   1       8.105  -4.913   3.390  0.00  0.00     0.006 C 
HETATM    9  C   UNK N   1       8.679  -6.069   4.190  0.00  0.00     0.014 C 
HETATM   10  C   UNK N   1      10.209  -5.916   4.341  0.00  0.00     0.055 C 
ENDROOT
BRANCH  10  11
HETATM   11  C   UNK N   1      10.766  -7.212   4.918  0.00  0.00    -0.010 A 
HETATM   12  C   UNK N   1      11.759  -7.170   5.913  0.00  0.00     0.014 A 
HETATM   13  C   UNK N   1      12.274  -8.349   6.446  0.00  0.00     0.044 A 
HETATM   14  C   UNK N   1      11.826  -9.589   5.987  0.00  0.00     0.136 A 
HETATM   15  F   UNK N   1      12.361 -10.714   6.527  0.00  0.00    -0.205 F 
HETATM   16  C   UNK N   1      10.839  -9.664   4.981  0.00  0.00     0.115 A 
HETATM   17  C   UNK N   1      10.305  -8.463   4.457  0.00  0.00     0.143 A 
HETATM   18  F   UNK N   1       9.359  -8.506   3.483  0.00  0.00    -0.204 F 
BRANCH  16  19
HETATM   19  C   UNK N   1      10.368 -10.989   4.475  0.00  0.00     0.182 C 
HETATM   20  O   UNK N   1      10.908 -11.507   3.507  0.00  0.00    -0.646 OA
BRANCH  19  21
HETATM   21  O   UNK N   1       9.339 -11.627   5.073  0.00  0.00    -0.772 OA
HETATM   22  H   UNK N   1       8.622 -12.019   4.554  0.00  0.00     0.167 HD
ENDBRANCH  19  21
ENDBRANCH  16  19
ENDBRANCH  10  11
BRANCH   1  23
HETATM   23  C   UNK N   1      12.911  -4.330  -0.593  0.00  0.00     0.176 C 
HETATM   24  O   UNK N   1      13.841  -3.537  -0.551  0.00  0.00    -0.646 OA
BRANCH  23  25
HETATM   25  O   UNK N   1      12.512  -4.827  -1.785  0.00  0.00    -0.773 OA
HETATM   26  H   UNK N   1      11.895  -5.572  -1.836  0.00  0.00     0.167 HD
ENDBRANCH  23  25
ENDBRANCH   1  23
TORSDOF 5
ENDMDL
MODEL 7
REMARK VINA RESULT:      -7.5      3.290      5.277
REMARK  5 active torsions:
REMARK  status: ('A' for Active; 'I' for Inactive)
REMARK    1  A    between atoms: C_2  and  O_3 
REMARK    2  A    between atoms: C_2  and  C_4 
REMARK    3  A    between atoms: C_13  and  C_14 
REMARK    4  A    between atoms: C_19  and  C_20 
REMARK    5  A    between atoms: C_20  and  O_22 
ROOT
HETATM    1  C   UNK N   1       7.468  -4.883  -1.267  0.00  0.00     0.038 A 
HETATM    2  C   UNK N   1       7.380  -5.557  -0.039  0.00  0.00     0.019 A 
HETATM    3  C   UNK N   1       8.494  -5.655   0.799  0.00  0.00     0.009 A 
HETATM    4  C   UNK N   1       9.720  -5.071   0.435  0.00  0.00    -0.043 A 
HETATM    5  C   UNK N   1       9.818  -4.401  -0.812  0.00  0.00    -0.050 A 
HETATM    6  C   UNK N   1       8.690  -4.305  -1.644  0.00  0.00     0.026 A 
HETATM    7  C   UNK N   1      11.119  -3.796  -1.284  0.00  0.00     0.039 C 
HETATM    8  C   UNK N   1      12.333  -4.378  -0.555  0.00  0.00     0.006 C 
HETATM    9  C   UNK N   1      12.108  -4.287   0.945  0.00  0.00     0.014 C 
HETATM   10  C   UNK N   1      10.925  -5.184   1.371  0.00  0.00     0.055 C 
ENDROOT
BRANCH  10  11
HETATM   11  C   UNK N   1      10.579  -4.865   2.821  0.00  0.00    -0.010 A 
HETATM   12  C   UNK N   1      10.162  -3.571   3.177  0.00  0.00     0.014 A 
HETATM   13  C   UNK N   1       9.844  -3.270   4.499  0.00  0.00     0.044 A 
HETATM   14  C   UNK N   1       9.954  -4.245   5.493  0.00  0.00     0.136 A 
HETATM   15  F   UNK N   1       9.642  -3.907   6.771  0.00  0.00    -0.205 F 
HETATM   16  C   UNK N   1      10.380  -5.550   5.169  0.00  0.00     0.115 A 
HETATM   17  C   UNK N   1      10.683  -5.855   3.821  0.00  0.00     0.143 A 
HETATM   18  F   UNK N   1      11.104  -7.101   3.482  0.00  0.00    -0.204 F 
BRANCH  16  19
HETATM   19  C   UNK N   1      10.515  -6.592   6.231  0.00  0.00     0.182 C 
HETATM   20  O   UNK N   1      11.592  -7.139   6.426  0.00  0.00    -0.646 OA
BRANCH  19  21
HETATM   21  O   UNK N   1       9.452  -6.948   6.984  0.00  0.00    -0.772 OA
HETATM   22  H   UNK N   1       9.567  -7.359   7.853  0.00  0.00     0.167 HD
ENDBRANCH  19  21
ENDBRANCH  16  19
ENDBRANCH  10  11
BRANCH   1  23
HETATM   23  C   UNK N   1       6.288  -4.792  -2.165  0.00  0.00     0.176 C 
HETATM   24  O   UNK N   1       6.438  -4.754  -3.378  0.00  0.00    -0.646 OA
BRANCH  23  25
HETATM   25  O   UNK N   1       5.041  -4.744  -1.646  0.00  0.00    -0.773 OA
HETATM   26  H   UNK N   1       4.810  -5.239  -0.847  0.00  0.00     0.167 HD
ENDBRANCH  23  25
ENDBRANCH   1  23
TORSDOF 5
ENDMDL
MODEL 8
REMARK VINA RESULT:      -7.4      3.391      6.918
REMARK  5 active torsions:
REMARK  status: ('A' for Active; 'I' for Inactive)
REMARK    1  A    between atoms: C_2  and  O_3 
REMARK    2  A    between atoms: C_2  and  C_4 
REMARK    3  A    between atoms: C_13  and  C_14 
REMARK    4  A    between atoms: C_19  and  C_20 
REMARK    5  A    between atoms: C_20  and  O_22 
ROOT
HETATM    1  C   UNK N   1      12.976 -12.334   5.287  0.00  0.00     0.038 A 
HETATM    2  C   UNK N   1      12.340 -11.666   4.228  0.00  0.00     0.019 A 
HETATM    3  C   UNK N   1      11.467 -10.605   4.480  0.00  0.00     0.009 A 
HETATM    4  C   UNK N   1      11.218 -10.176   5.796  0.00  0.00    -0.043 A 
HETATM    5  C   UNK N   1      11.847 -10.857   6.870  0.00  0.00    -0.050 A 
HETATM    6  C   UNK N   1      12.726 -11.921   6.605  0.00  0.00     0.026 A 
HETATM    7  C   UNK N   1      11.582 -10.479   8.309  0.00  0.00     0.039 C 
HETATM    8  C   UNK N   1      10.286  -9.681   8.474  0.00  0.00     0.006 C 
HETATM    9  C   UNK N   1      10.293  -8.508   7.510  0.00  0.00     0.014 C 
HETATM   10  C   UNK N   1      10.265  -9.007   6.048  0.00  0.00     0.055 C 
ENDROOT
BRANCH  10  11
HETATM   11  C   UNK N   1      10.530  -7.819   5.130  0.00  0.00    -0.010 A 
HETATM   12  C   UNK N   1      11.825  -7.282   5.031  0.00  0.00     0.014 A 
HETATM   13  C   UNK N   1      12.076  -6.196   4.195  0.00  0.00     0.044 A 
HETATM   14  C   UNK N   1      11.042  -5.615   3.458  0.00  0.00     0.136 A 
HETATM   15  F   UNK N   1      11.329  -4.553   2.662  0.00  0.00    -0.205 F 
HETATM   16  C   UNK N   1       9.729  -6.125   3.545  0.00  0.00     0.115 A 
HETATM   17  C   UNK N   1       9.483  -7.240   4.381  0.00  0.00     0.143 A 
HETATM   18  F   UNK N   1       8.228  -7.746   4.490  0.00  0.00    -0.204 F 
BRANCH  16  19
HETATM   19  C   UNK N   1       8.617  -5.496   2.772  0.00  0.00     0.182 C 
HETATM   20  O   UNK N   1       8.439  -5.789   1.597  0.00  0.00    -0.646 OA
BRANCH  19  21
HETATM   21  O   UNK N   1       7.800  -4.593   3.354  0.00  0.00    -0.772 OA
HETATM   22  H   UNK N   1       7.004  -4.272   2.905  0.00  0.00     0.167 HD
ENDBRANCH  19  21
ENDBRANCH  16  19
ENDBRANCH  10  11
BRANCH   1  23
HETATM   23  C   UNK N   1      13.891 -13.474   5.020  0.00  0.00     0.176 C 
HETATM   24  O   UNK N   1      13.457 -14.518   4.557  0.00  0.00    -0.646 OA
BRANCH  23  25
HETATM   25  O   UNK N   1      15.210 -13.365   5.296  0.00  0.00    -0.773 OA
HETATM   26  H   UNK N   1      15.561 -13.599   6.168  0.00  0.00     0.167 HD
ENDBRANCH  23  25
ENDBRANCH   1  23
TORSDOF 5
ENDMDL
MODEL 9
REMARK VINA RESULT:      -7.3      3.390      4.484
REMARK  5 active torsions:
REMARK  status: ('A' for Active; 'I' for Inactive)
REMARK    1  A    between atoms: C_2  and  O_3 
REMARK    2  A    between atoms: C_2  and  C_4 
REMARK    3  A    between atoms: C_13  and  C_14 
REMARK    4  A    between atoms: C_19  and  C_20 
REMARK    5  A    between atoms: C_20  and  O_22 
ROOT
HETATM    1  C   UNK N   1      12.991  -4.725  -2.380  0.00  0.00     0.038 A 
HETATM    2  C   UNK N   1      13.305  -4.199  -1.118  0.00  0.00     0.019 A 
HETATM    3  C   UNK N   1      12.305  -3.998  -0.163  0.00  0.00     0.009 A 
HETATM    4  C   UNK N   1      10.968  -4.328  -0.443  0.00  0.00    -0.043 A 
HETATM    5  C   UNK N   1      10.642  -4.847  -1.724  0.00  0.00    -0.050 A 
HETATM    6  C   UNK N   1      11.657  -5.049  -2.674  0.00  0.00     0.026 A 
HETATM    7  C   UNK N   1       9.218  -5.174  -2.105  0.00  0.00     0.039 C 
HETATM    8  C   UNK N   1       8.196  -4.470  -1.208  0.00  0.00     0.006 C 
HETATM    9  C   UNK N   1       8.533  -4.744   0.248  0.00  0.00     0.014 C 
HETATM   10  C   UNK N   1       9.890  -4.107   0.620  0.00  0.00     0.055 C 
ENDROOT
BRANCH  10  11
HETATM   11  C   UNK N   1      10.301  -4.620   1.995  0.00  0.00    -0.010 A 
HETATM   12  C   UNK N   1      11.277  -5.625   2.108  0.00  0.00     0.014 A 
HETATM   13  C   UNK N   1      11.658  -6.101   3.360  0.00  0.00     0.044 A 
HETATM   14  C   UNK N   1      11.063  -5.600   4.520  0.00  0.00     0.136 A 
HETATM   15  F   UNK N   1      11.458  -6.098   5.720  0.00  0.00    -0.205 F 
HETATM   16  C   UNK N   1      10.072  -4.598   4.438  0.00  0.00     0.115 A 
HETATM   17  C   UNK N   1       9.702  -4.105   3.164  0.00  0.00     0.143 A 
HETATM   18  F   UNK N   1       8.746  -3.148   3.056  0.00  0.00    -0.204 F 
BRANCH  16  19
HETATM   19  C   UNK N   1       9.421  -4.071   5.674  0.00  0.00     0.182 C 
HETATM   20  O   UNK N   1       8.202  -4.088   5.785  0.00  0.00    -0.646 OA
BRANCH  19  21
HETATM   21  O   UNK N   1      10.164  -3.564   6.681  0.00  0.00    -0.772 OA
HETATM   22  H   UNK N   1      10.453  -2.640   6.676  0.00  0.00     0.167 HD
ENDBRANCH  19  21
ENDBRANCH  16  19
ENDBRANCH  10  11
BRANCH   1  23
HETATM   23  C   UNK N   1      14.052  -4.925  -3.402  0.00  0.00     0.176 C 
HETATM   24  O   UNK N   1      14.335  -4.025  -4.181  0.00  0.00    -0.646 OA
BRANCH  23  25
HETATM   25  O   UNK N   1      14.705  -6.105  -3.481  0.00  0.00    -0.773 OA
HETATM   26  H   UNK N   1      14.752  -6.705  -2.722  0.00  0.00     0.167 HD
ENDBRANCH  23  25
ENDBRANCH   1  23
TORSDOF 5
ENDMDL
