MODEL 1
REMARK VINA RESULT:      -6.6      0.000      0.000
REMARK  4 active torsions:
REMARK  status: ('A' for Active; 'I' for Inactive)
REMARK    1  A    between atoms: C_2  and  O_3 
REMARK    2  A    between atoms: C_2  and  C_4 
REMARK    3  A    between atoms: C_11  and  C_12 
REMARK    4  A    between atoms: C_12  and  O_14 
ROOT
HETATM    1  C   UNK N   1      10.601  -5.981   4.694  0.00  0.00     0.057 A 
HETATM    2  C   UNK N   1      11.514  -6.411   3.709  0.00  0.00     0.021 A 
HETATM    3  C   UNK N   1      12.174  -5.502   2.889  0.00  0.00     0.023 A 
HETATM    4  C   UNK N   1      11.940  -4.140   3.023  0.00  0.00     0.050 A 
HETATM    5 Br   UNK N   1      12.863  -2.909   1.887  0.00  0.00    -0.048 Br
HETATM    6  C   UNK N   1      11.052  -3.671   3.993  0.00  0.00     0.151 A 
HETATM    7  F   UNK N   1      10.880  -2.330   4.116  0.00  0.00    -0.203 F 
HETATM    8  C   UNK N   1      10.379  -4.570   4.860  0.00  0.00     0.094 A 
ENDROOT
BRANCH   1   9
HETATM    9  C   UNK N   1       9.886  -7.049   5.468  0.00  0.00     0.177 C 
HETATM   10  O   UNK N   1       9.576  -8.107   4.949  0.00  0.00    -0.646 OA
BRANCH   9  11
HETATM   11  O   UNK N   1       9.657  -6.881   6.790  0.00  0.00    -0.773 OA
HETATM   12  H   UNK N   1       9.115  -7.512   7.283  0.00  0.00     0.167 HD
ENDBRANCH   9  11
ENDBRANCH   1   9
BRANCH   8  13
HETATM   13  C   UNK N   1       9.524  -3.987   5.948  0.00  0.00     0.180 C 
HETATM   14  O   UNK N   1       8.407  -3.561   5.688  0.00  0.00    -0.646 OA
BRANCH  13  15
HETATM   15  O   UNK N   1      10.014  -3.801   7.190  0.00  0.00    -0.773 OA
HETATM   16  H   UNK N   1       9.464  -3.456   7.907  0.00  0.00     0.167 HD
ENDBRANCH  13  15
ENDBRANCH   8  13
TORSDOF 4
ENDMDL
MODEL 2
REMARK VINA RESULT:      -6.2      1.947      2.736
REMARK  4 active torsions:
REMARK  status: ('A' for Active; 'I' for Inactive)
REMARK    1  A    between atoms: C_2  and  O_3 
REMARK    2  A    between atoms: C_2  and  C_4 
REMARK    3  A    between atoms: C_11  and  C_12 
REMARK    4  A    between atoms: C_12  and  O_14 
ROOT
HETATM    1  C   UNK N   1      10.736  -4.062   4.477  0.00  0.00     0.057 A 
HETATM    2  C   UNK N   1      10.979  -5.329   3.909  0.00  0.00     0.021 A 
HETATM    3  C   UNK N   1      11.803  -5.477   2.798  0.00  0.00     0.023 A 
HETATM    4  C   UNK N   1      12.402  -4.366   2.218  0.00  0.00     0.050 A 
HETATM    5 Br   UNK N   1      13.534  -4.596   0.693  0.00  0.00    -0.048 Br
HETATM    6  C   UNK N   1      12.196  -3.095   2.756  0.00  0.00     0.151 A 
HETATM    7  F   UNK N   1      12.831  -2.040   2.181  0.00  0.00    -0.203 F 
HETATM    8  C   UNK N   1      11.380  -2.912   3.901  0.00  0.00     0.094 A 
ENDROOT
BRANCH   1   9
HETATM    9  C   UNK N   1       9.770  -4.007   5.623  0.00  0.00     0.177 C 
HETATM   10  O   UNK N   1       8.647  -3.554   5.484  0.00  0.00    -0.646 OA
BRANCH   9  11
HETATM   11  O   UNK N   1      10.108  -4.552   6.814  0.00  0.00    -0.773 OA
HETATM   12  H   UNK N   1       9.703  -5.377   7.115  0.00  0.00     0.167 HD
ENDBRANCH   9  11
ENDBRANCH   1   9
BRANCH   8  13
HETATM   13  C   UNK N   1      11.292  -1.532   4.487  0.00  0.00     0.180 C 
HETATM   14  O   UNK N   1      10.427  -0.757   4.104  0.00  0.00    -0.646 OA
BRANCH  13  15
HETATM   15  O   UNK N   1      12.236  -1.078   5.337  0.00  0.00    -0.773 OA
HETATM   16  H   UNK N   1      12.725  -1.676   5.918  0.00  0.00     0.167 HD
ENDBRANCH  13  15
ENDBRANCH   8  13
TORSDOF 4
ENDMDL
MODEL 3
REMARK VINA RESULT:      -5.9      4.641      5.919
REMARK  4 active torsions:
REMARK  status: ('A' for Active; 'I' for Inactive)
REMARK    1  A    between atoms: C_2  and  O_3 
REMARK    2  A    between atoms: C_2  and  C_4 
REMARK    3  A    between atoms: C_11  and  C_12 
REMARK    4  A    between atoms: C_12  and  O_14 
ROOT
HETATM    1  C   UNK N   1      11.229  -9.925   7.525  0.00  0.00     0.057 A 
HETATM    2  C   UNK N   1      11.468 -11.309   7.403  0.00  0.00     0.021 A 
HETATM    3  C   UNK N   1      11.261 -11.975   6.199  0.00  0.00     0.023 A 
HETATM    4  C   UNK N   1      10.805 -11.282   5.085  0.00  0.00     0.050 A 
HETATM    5 Br   UNK N   1      10.532 -12.218   3.440  0.00  0.00    -0.048 Br
HETATM    6  C   UNK N   1      10.566  -9.908   5.161  0.00  0.00     0.151 A 
HETATM    7  F   UNK N   1      10.157  -9.261   4.039  0.00  0.00    -0.203 F 
HETATM    8  C   UNK N   1      10.788  -9.195   6.367  0.00  0.00     0.094 A 
ENDROOT
BRANCH   1   9
HETATM    9  C   UNK N   1      11.408  -9.325   8.888  0.00  0.00     0.177 C 
HETATM   10  O   UNK N   1      10.494  -9.297   9.693  0.00  0.00    -0.646 OA
BRANCH   9  11
HETATM   11  O   UNK N   1      12.628  -8.886   9.274  0.00  0.00    -0.773 OA
HETATM   12  H   UNK N   1      12.832  -7.941   9.294  0.00  0.00     0.167 HD
ENDBRANCH   9  11
ENDBRANCH   1   9
BRANCH   8  13
HETATM   13  C   UNK N   1      10.614  -7.705   6.342  0.00  0.00     0.180 C 
HETATM   14  O   UNK N   1      11.540  -6.985   5.996  0.00  0.00    -0.646 OA
BRANCH  13  15
HETATM   15  O   UNK N   1       9.493  -7.129   6.823  0.00  0.00    -0.773 OA
HETATM   16  H   UNK N   1       9.489  -6.648   7.661  0.00  0.00     0.167 HD
ENDBRANCH  13  15
ENDBRANCH   8  13
TORSDOF 4
ENDMDL
MODEL 4
REMARK VINA RESULT:      -5.9      5.210      6.454
REMARK  4 active torsions:
REMARK  status: ('A' for Active; 'I' for Inactive)
REMARK    1  A    between atoms: C_2  and  O_3 
REMARK    2  A    between atoms: C_2  and  C_4 
REMARK    3  A    between atoms: C_11  and  C_12 
REMARK    4  A    between atoms: C_12  and  O_14 
ROOT
HETATM    1  C   UNK N   1      11.083  -8.939   6.270  0.00  0.00     0.057 A 
HETATM    2  C   UNK N   1      11.103  -9.496   4.975  0.00  0.00     0.021 A 
HETATM    3  C   UNK N   1      11.553 -10.793   4.753  0.00  0.00     0.023 A 
HETATM    4  C   UNK N   1      12.002 -11.570   5.813  0.00  0.00     0.050 A 
HETATM    5 Br   UNK N   1      12.612 -13.353   5.482  0.00  0.00    -0.048 Br
HETATM    6  C   UNK N   1      11.989 -11.061   7.112  0.00  0.00     0.151 A 
HETATM    7  F   UNK N   1      12.400 -11.866   8.126  0.00  0.00    -0.203 F 
HETATM    8  C   UNK N   1      11.515  -9.750   7.377  0.00  0.00     0.094 A 
ENDROOT
BRANCH   1   9
HETATM    9  C   UNK N   1      10.654  -7.507   6.385  0.00  0.00     0.177 C 
HETATM   10  O   UNK N   1      11.287  -6.611   5.853  0.00  0.00    -0.646 OA
BRANCH   9  11
HETATM   11  O   UNK N   1       9.495  -7.201   7.011  0.00  0.00    -0.773 OA
HETATM   12  H   UNK N   1       8.650  -7.539   6.684  0.00  0.00     0.167 HD
ENDBRANCH   9  11
ENDBRANCH   1   9
BRANCH   8  13
HETATM   13  C   UNK N   1      11.430  -9.311   8.810  0.00  0.00     0.180 C 
HETATM   14  O   UNK N   1      10.340  -9.207   9.355  0.00  0.00    -0.646 OA
BRANCH  13  15
HETATM   15  O   UNK N   1      12.528  -8.898   9.475  0.00  0.00    -0.773 OA
HETATM   16  H   UNK N   1      12.491  -8.174  10.115  0.00  0.00     0.167 HD
ENDBRANCH  13  15
ENDBRANCH   8  13
TORSDOF 4
ENDMDL
MODEL 5
REMARK VINA RESULT:      -5.8      1.653      3.282
REMARK  4 active torsions:
REMARK  status: ('A' for Active; 'I' for Inactive)
REMARK    1  A    between atoms: C_2  and  O_3 
REMARK    2  A    between atoms: C_2  and  C_4 
REMARK    3  A    between atoms: C_11  and  C_12 
REMARK    4  A    between atoms: C_12  and  O_14 
ROOT
HETATM    1  C   UNK N   1      10.608  -3.905   4.557  0.00  0.00     0.057 A 
HETATM    2  C   UNK N   1      10.978  -2.602   4.165  0.00  0.00     0.021 A 
HETATM    3  C   UNK N   1      11.881  -2.388   3.129  0.00  0.00     0.023 A 
HETATM    4  C   UNK N   1      12.445  -3.465   2.457  0.00  0.00     0.050 A 
HETATM    5 Br   UNK N   1      13.680  -3.145   1.033  0.00  0.00    -0.048 Br
HETATM    6  C   UNK N   1      12.097  -4.771   2.807  0.00  0.00     0.151 A 
HETATM    7  F   UNK N   1      12.642  -5.795   2.101  0.00  0.00    -0.203 F 
HETATM    8  C   UNK N   1      11.163  -5.024   3.844  0.00  0.00     0.094 A 
ENDROOT
BRANCH   1   9
HETATM    9  C   UNK N   1       9.689  -4.022   5.737  0.00  0.00     0.177 C 
HETATM   10  O   UNK N   1       8.529  -3.653   5.676  0.00  0.00    -0.646 OA
BRANCH   9  11
HETATM   11  O   UNK N   1      10.119  -4.630   6.865  0.00  0.00    -0.773 OA
HETATM   12  H   UNK N   1       9.889  -5.551   7.051  0.00  0.00     0.167 HD
ENDBRANCH   9  11
ENDBRANCH   1   9
BRANCH   8  13
HETATM   13  C   UNK N   1      10.756  -6.448   4.090  0.00  0.00     0.180 C 
HETATM   14  O   UNK N   1      11.481  -7.189   4.741  0.00  0.00    -0.646 OA
BRANCH  13  15
HETATM   15  O   UNK N   1       9.665  -6.971   3.495  0.00  0.00    -0.773 OA
HETATM   16  H   UNK N   1       8.984  -6.409   3.100  0.00  0.00     0.167 HD
ENDBRANCH  13  15
ENDBRANCH   8  13
TORSDOF 4
ENDMDL
MODEL 6
REMARK VINA RESULT:      -5.6      2.742      3.305
REMARK  4 active torsions:
REMARK  status: ('A' for Active; 'I' for Inactive)
REMARK    1  A    between atoms: C_2  and  O_3 
REMARK    2  A    between atoms: C_2  and  C_4 
REMARK    3  A    between atoms: C_11  and  C_12 
REMARK    4  A    between atoms: C_12  and  O_14 
ROOT
HETATM    1  C   UNK N   1       9.079  -4.459   4.082  0.00  0.00     0.057 A 
HETATM    2  C   UNK N   1       8.217  -5.296   3.343  0.00  0.00     0.021 A 
HETATM    3  C   UNK N   1       8.168  -5.236   1.954  0.00  0.00     0.023 A 
HETATM    4  C   UNK N   1       8.971  -4.338   1.262  0.00  0.00     0.050 A 
HETATM    5 Br   UNK N   1       8.888  -4.278  -0.648  0.00  0.00    -0.048 Br
HETATM    6  C   UNK N   1       9.845  -3.499   1.955  0.00  0.00     0.151 A 
HETATM    7  F   UNK N   1      10.640  -2.662   1.239  0.00  0.00    -0.203 F 
HETATM    8  C   UNK N   1       9.936  -3.549   3.370  0.00  0.00     0.094 A 
ENDROOT
BRANCH   1   9
HETATM    9  C   UNK N   1       8.994  -4.550   5.576  0.00  0.00     0.177 C 
HETATM   10  O   UNK N   1       8.531  -3.639   6.241  0.00  0.00    -0.646 OA
BRANCH   9  11
HETATM   11  O   UNK N   1       9.349  -5.695   6.201  0.00  0.00    -0.773 OA
HETATM   12  H   UNK N   1      10.260  -5.839   6.492  0.00  0.00     0.167 HD
ENDBRANCH   9  11
ENDBRANCH   1   9
BRANCH   8  13
HETATM   13  C   UNK N   1      10.975  -2.695   4.036  0.00  0.00     0.180 C 
HETATM   14  O   UNK N   1      10.673  -1.596   4.480  0.00  0.00    -0.646 OA
BRANCH  13  15
HETATM   15  O   UNK N   1      12.274  -3.059   4.040  0.00  0.00    -0.773 OA
HETATM   16  H   UNK N   1      12.629  -3.680   3.389  0.00  0.00     0.167 HD
ENDBRANCH  13  15
ENDBRANCH   8  13
TORSDOF 4
ENDMDL
MODEL 7
REMARK VINA RESULT:      -5.5      5.728      7.053
REMARK  4 active torsions:
REMARK  status: ('A' for Active; 'I' for Inactive)
REMARK    1  A    between atoms: C_2  and  O_3 
REMARK    2  A    between atoms: C_2  and  C_4 
REMARK    3  A    between atoms: C_11  and  C_12 
REMARK    4  A    between atoms: C_12  and  O_14 
ROOT
HETATM    1  C   UNK N   1      11.545 -10.551   7.845  0.00  0.00     0.057 A 
HETATM    2  C   UNK N   1      12.348 -11.517   8.487  0.00  0.00     0.021 A 
HETATM    3  C   UNK N   1      13.173 -12.369   7.760  0.00  0.00     0.023 A 
HETATM    4  C   UNK N   1      13.218 -12.287   6.375  0.00  0.00     0.050 A 
HETATM    5 Br   UNK N   1      14.364 -13.467   5.398  0.00  0.00    -0.048 Br
HETATM    6  C   UNK N   1      12.448 -11.338   5.701  0.00  0.00     0.151 A 
HETATM    7  F   UNK N   1      12.549 -11.266   4.349  0.00  0.00    -0.203 F 
HETATM    8  C   UNK N   1      11.612 -10.439   6.413  0.00  0.00     0.094 A 
ENDROOT
BRANCH   1   9
HETATM    9  C   UNK N   1      10.635  -9.739   8.718  0.00  0.00     0.177 C 
HETATM   10  O   UNK N   1      11.076  -9.008   9.587  0.00  0.00    -0.646 OA
BRANCH   9  11
HETATM   11  O   UNK N   1       9.303  -9.740   8.484  0.00  0.00    -0.773 OA
HETATM   12  H   UNK N   1       8.839 -10.559   8.261  0.00  0.00     0.167 HD
ENDBRANCH   9  11
ENDBRANCH   1   9
BRANCH   8  13
HETATM   13  C   UNK N   1      10.898  -9.376   5.630  0.00  0.00     0.180 C 
HETATM   14  O   UNK N   1      11.490  -8.362   5.291  0.00  0.00    -0.646 OA
BRANCH  13  15
HETATM   15  O   UNK N   1       9.570  -9.456   5.403  0.00  0.00    -0.773 OA
HETATM   16  H   UNK N   1       8.962  -9.806   6.068  0.00  0.00     0.167 HD
ENDBRANCH  13  15
ENDBRANCH   8  13
TORSDOF 4
ENDMDL
MODEL 8
REMARK VINA RESULT:      -5.5      3.131      3.854
REMARK  4 active torsions:
REMARK  status: ('A' for Active; 'I' for Inactive)
REMARK    1  A    between atoms: C_2  and  O_3 
REMARK    2  A    between atoms: C_2  and  C_4 
REMARK    3  A    between atoms: C_11  and  C_12 
REMARK    4  A    between atoms: C_12  and  O_14 
ROOT
HETATM    1  C   UNK N   1       9.316  -4.629   3.845  0.00  0.00     0.057 A 
HETATM    2  C   UNK N   1       8.031  -4.847   3.305  0.00  0.00     0.021 A 
HETATM    3  C   UNK N   1       7.855  -5.147   1.958  0.00  0.00     0.023 A 
HETATM    4  C   UNK N   1       8.951  -5.232   1.110  0.00  0.00     0.050 A 
HETATM    5 Br   UNK N   1       8.683  -5.649  -0.738  0.00  0.00    -0.048 Br
HETATM    6  C   UNK N   1      10.241  -5.033   1.606  0.00  0.00     0.151 A 
HETATM    7  F   UNK N   1      11.288  -5.162   0.751  0.00  0.00    -0.203 F 
HETATM    8  C   UNK N   1      10.458  -4.748   2.978  0.00  0.00     0.094 A 
ENDROOT
BRANCH   1   9
HETATM    9  C   UNK N   1       9.385  -4.235   5.290  0.00  0.00     0.177 C 
HETATM   10  O   UNK N   1       8.586  -3.451   5.772  0.00  0.00    -0.646 OA
BRANCH   9  11
HETATM   11  O   UNK N   1      10.290  -4.823   6.104  0.00  0.00    -0.773 OA
HETATM   12  H   UNK N   1      10.044  -5.577   6.657  0.00  0.00     0.167 HD
ENDBRANCH   9  11
ENDBRANCH   1   9
BRANCH   8  13
HETATM   13  C   UNK N   1      11.877  -4.654   3.459  0.00  0.00     0.180 C 
HETATM   14  O   UNK N   1      12.419  -5.628   3.964  0.00  0.00    -0.646 OA
BRANCH  13  15
HETATM   15  O   UNK N   1      12.530  -3.474   3.467  0.00  0.00    -0.773 OA
HETATM   16  H   UNK N   1      13.490  -3.424   3.361  0.00  0.00     0.167 HD
ENDBRANCH  13  15
ENDBRANCH   8  13
TORSDOF 4
ENDMDL
MODEL 9
REMARK VINA RESULT:      -5.0      2.180      2.223
REMARK  4 active torsions:
REMARK  status: ('A' for Active; 'I' for Inactive)
REMARK    1  A    between atoms: C_2  and  O_3 
REMARK    2  A    between atoms: C_2  and  C_4 
REMARK    3  A    between atoms: C_11  and  C_12 
REMARK    4  A    between atoms: C_12  and  O_14 
ROOT
HETATM    1  C   UNK N   1       9.923  -5.561   3.389  0.00  0.00     0.057 A 
HETATM    2  C   UNK N   1      10.055  -5.964   2.044  0.00  0.00     0.021 A 
HETATM    3  C   UNK N   1       9.845  -5.071   0.999  0.00  0.00     0.023 A 
HETATM    4  C   UNK N   1       9.491  -3.754   1.262  0.00  0.00     0.050 A 
HETATM    5 Br   UNK N   1       9.211  -2.544  -0.192  0.00  0.00    -0.048 Br
HETATM    6  C   UNK N   1       9.360  -3.312   2.580  0.00  0.00     0.151 A 
HETATM    7  F   UNK N   1       9.050  -2.007   2.795  0.00  0.00    -0.203 F 
HETATM    8  C   UNK N   1       9.589  -4.190   3.670  0.00  0.00     0.094 A 
ENDROOT
BRANCH   1   9
HETATM    9  C   UNK N   1      10.094  -6.623   4.434  0.00  0.00     0.177 C 
HETATM   10  O   UNK N   1      11.200  -6.993   4.786  0.00  0.00    -0.646 OA
BRANCH   9  11
HETATM   11  O   UNK N   1       9.009  -7.121   5.070  0.00  0.00    -0.773 OA
HETATM   12  H   UNK N   1       8.126  -7.040   4.684  0.00  0.00     0.167 HD
ENDBRANCH   9  11
ENDBRANCH   1   9
BRANCH   8  13
HETATM   13  C   UNK N   1       9.536  -3.617   5.056  0.00  0.00     0.180 C 
HETATM   14  O   UNK N   1       8.482  -3.609   5.677  0.00  0.00    -0.646 OA
BRANCH  13  15
HETATM   15  O   UNK N   1      10.603  -2.985   5.587  0.00  0.00    -0.773 OA
HETATM   16  H   UNK N   1      11.034  -2.247   5.134  0.00  0.00     0.167 HD
ENDBRANCH  13  15
ENDBRANCH   8  13
TORSDOF 4
ENDMDL
