MODEL 1
REMARK VINA RESULT:      -6.5      0.000      0.000
REMARK  4 active torsions:
REMARK  status: ('A' for Active; 'I' for Inactive)
REMARK    1  A    between atoms: S_2  and  N_5 
REMARK    2  A    between atoms: N_5  and  C_6 
REMARK    3  A    between atoms: C_11  and  C_12 
REMARK    4  A    between atoms: C_12  and  O_14 
ROOT
HETATM    1  C   UNK N   1      10.319  -7.757   5.497  0.00  0.00     0.082 A 
HETATM    2  C   UNK N   1      10.982  -7.664   4.260  0.00  0.00     0.036 A 
HETATM    3  C   UNK N   1      11.170  -6.426   3.650  0.00  0.00     0.046 A 
HETATM    4  C   UNK N   1      10.694  -5.260   4.250  0.00  0.00     0.136 A 
HETATM    5  F   UNK N   1      10.895  -4.076   3.621  0.00  0.00    -0.205 F 
HETATM    6  C   UNK N   1      10.018  -5.322   5.489  0.00  0.00     0.117 A 
HETATM    7  C   UNK N   1       9.841  -6.581   6.107  0.00  0.00     0.163 A 
HETATM    8  F   UNK N   1       9.186  -6.674   7.294  0.00  0.00    -0.202 F 
ENDROOT
BRANCH   1   9
HETATM    9  N   UNK N   1      10.113  -9.017   6.140  0.00  0.00    -0.282 N 
HETATM   10  H   UNK N   1       9.502  -9.717   5.696  0.00  0.00     0.178 HD
BRANCH   9  11
HETATM   11  S   UNK N   1      11.099  -9.556   7.490  0.00  0.00     0.227 S 
HETATM   12  C   UNK N   1      11.553 -11.306   7.429  0.00  0.00     0.186 C 
HETATM   13  O   UNK N   1      10.260  -9.212   8.731  0.00  0.00    -0.206 OA
HETATM   14  O   UNK N   1      12.268  -8.563   7.592  0.00  0.00    -0.206 OA
ENDBRANCH   9  11
ENDBRANCH   1   9
BRANCH   6  15
HETATM   15  C   UNK N   1       9.496  -4.076   6.127  0.00  0.00     0.182 C 
HETATM   16  O   UNK N   1       8.503  -3.521   5.677  0.00  0.00    -0.646 OA
BRANCH  15  17
HETATM   17  O   UNK N   1      10.113  -3.547   7.204  0.00  0.00    -0.772 OA
HETATM   18  H   UNK N   1      10.276  -4.074   7.999  0.00  0.00     0.167 HD
ENDBRANCH  15  17
ENDBRANCH   6  15
TORSDOF 4
ENDMDL
MODEL 2
REMARK VINA RESULT:      -6.3      4.362      5.812
REMARK  4 active torsions:
REMARK  status: ('A' for Active; 'I' for Inactive)
REMARK    1  A    between atoms: S_2  and  N_5 
REMARK    2  A    between atoms: N_5  and  C_6 
REMARK    3  A    between atoms: C_11  and  C_12 
REMARK    4  A    between atoms: C_12  and  O_14 
ROOT
HETATM    1  C   UNK N   1      12.121  -4.239   3.101  0.00  0.00     0.082 A 
HETATM    2  C   UNK N   1      12.162  -5.636   2.939  0.00  0.00     0.036 A 
HETATM    3  C   UNK N   1      11.358  -6.461   3.721  0.00  0.00     0.046 A 
HETATM    4  C   UNK N   1      10.507  -5.919   4.684  0.00  0.00     0.136 A 
HETATM    5  F   UNK N   1       9.744  -6.759   5.425  0.00  0.00    -0.205 F 
HETATM    6  C   UNK N   1      10.449  -4.520   4.875  0.00  0.00     0.117 A 
HETATM    7  C   UNK N   1      11.260  -3.688   4.070  0.00  0.00     0.163 A 
HETATM    8  F   UNK N   1      11.233  -2.339   4.237  0.00  0.00    -0.202 F 
ENDROOT
BRANCH   1   9
HETATM    9  N   UNK N   1      12.939  -3.372   2.312  0.00  0.00    -0.282 N 
HETATM   10  H   UNK N   1      13.507  -2.650   2.779  0.00  0.00     0.178 HD
BRANCH   9  11
HETATM   11  S   UNK N   1      13.270  -3.679   0.615  0.00  0.00     0.227 S 
HETATM   12  C   UNK N   1      11.850  -4.296  -0.321  0.00  0.00     0.186 C 
HETATM   13  O   UNK N   1      14.436  -4.679   0.633  0.00  0.00    -0.206 OA
HETATM   14  O   UNK N   1      13.932  -2.405   0.068  0.00  0.00    -0.206 OA
ENDBRANCH   9  11
ENDBRANCH   1   9
BRANCH   6  15
HETATM   15  C   UNK N   1       9.548  -3.938   5.914  0.00  0.00     0.182 C 
HETATM   16  O   UNK N   1       8.407  -3.602   5.626  0.00  0.00    -0.646 OA
BRANCH  15  17
HETATM   17  O   UNK N   1       9.981  -3.771   7.182  0.00  0.00    -0.772 OA
HETATM   18  H   UNK N   1      10.897  -3.525   7.371  0.00  0.00     0.167 HD
ENDBRANCH  15  17
ENDBRANCH   6  15
TORSDOF 4
ENDMDL
MODEL 3
REMARK VINA RESULT:      -6.3      3.476      6.599
REMARK  4 active torsions:
REMARK  status: ('A' for Active; 'I' for Inactive)
REMARK    1  A    between atoms: S_2  and  N_5 
REMARK    2  A    between atoms: N_5  and  C_6 
REMARK    3  A    between atoms: C_11  and  C_12 
REMARK    4  A    between atoms: C_12  and  O_14 
ROOT
HETATM    1  C   UNK N   1      10.821  -9.850   6.366  0.00  0.00     0.082 A 
HETATM    2  C   UNK N   1      10.947 -10.007   7.759  0.00  0.00     0.036 A 
HETATM    3  C   UNK N   1      11.810 -10.966   8.286  0.00  0.00     0.046 A 
HETATM    4  C   UNK N   1      12.555 -11.791   7.444  0.00  0.00     0.136 A 
HETATM    5  F   UNK N   1      13.379 -12.713   7.999  0.00  0.00    -0.205 F 
HETATM    6  C   UNK N   1      12.444 -11.662   6.042  0.00  0.00     0.117 A 
HETATM    7  C   UNK N   1      11.574 -10.680   5.514  0.00  0.00     0.163 A 
HETATM    8  F   UNK N   1      11.439 -10.539   4.168  0.00  0.00    -0.202 F 
ENDROOT
BRANCH   1   9
HETATM    9  N   UNK N   1       9.941  -8.876   5.803  0.00  0.00    -0.282 N 
HETATM   10  H   UNK N   1       8.958  -9.127   5.624  0.00  0.00     0.178 HD
BRANCH   9  11
HETATM   11  S   UNK N   1      10.366  -7.175   5.695  0.00  0.00     0.227 S 
HETATM   12  C   UNK N   1      10.108  -6.446   4.060  0.00  0.00     0.186 C 
HETATM   13  O   UNK N   1      11.839  -7.126   6.130  0.00  0.00    -0.206 OA
HETATM   14  O   UNK N   1       9.650  -6.477   6.861  0.00  0.00    -0.206 OA
ENDBRANCH   9  11
ENDBRANCH   1   9
BRANCH   6  15
HETATM   15  C   UNK N   1      13.230 -12.554   5.137  0.00  0.00     0.182 C 
HETATM   16  O   UNK N   1      12.657 -13.328   4.382  0.00  0.00    -0.646 OA
BRANCH  15  17
HETATM   17  O   UNK N   1      14.579 -12.520   5.143  0.00  0.00    -0.772 OA
HETATM   18  H   UNK N   1      15.099 -13.241   5.526  0.00  0.00     0.167 HD
ENDBRANCH  15  17
ENDBRANCH   6  15
TORSDOF 4
ENDMDL
MODEL 4
REMARK VINA RESULT:      -6.2      1.708      1.927
REMARK  4 active torsions:
REMARK  status: ('A' for Active; 'I' for Inactive)
REMARK    1  A    between atoms: S_2  and  N_5 
REMARK    2  A    between atoms: N_5  and  C_6 
REMARK    3  A    between atoms: C_11  and  C_12 
REMARK    4  A    between atoms: C_12  and  O_14 
ROOT
HETATM    1  C   UNK N   1       9.719  -6.615   5.363  0.00  0.00     0.082 A 
HETATM    2  C   UNK N   1       9.516  -7.154   4.079  0.00  0.00     0.036 A 
HETATM    3  C   UNK N   1       9.525  -6.328   2.957  0.00  0.00     0.046 A 
HETATM    4  C   UNK N   1       9.723  -4.954   3.088  0.00  0.00     0.136 A 
HETATM    5  F   UNK N   1       9.720  -4.187   1.970  0.00  0.00    -0.205 F 
HETATM    6  C   UNK N   1       9.922  -4.382   4.364  0.00  0.00     0.117 A 
HETATM    7  C   UNK N   1       9.923  -5.228   5.497  0.00  0.00     0.163 A 
HETATM    8  F   UNK N   1      10.103  -4.706   6.740  0.00  0.00    -0.202 F 
ENDROOT
BRANCH   1   9
HETATM    9  N   UNK N   1       9.712  -7.442   6.528  0.00  0.00    -0.282 N 
HETATM   10  H   UNK N   1       8.907  -7.403   7.171  0.00  0.00     0.178 HD
BRANCH   9  11
HETATM   11  S   UNK N   1      10.857  -8.753   6.758  0.00  0.00     0.227 S 
HETATM   12  C   UNK N   1      10.537 -10.210   5.734  0.00  0.00     0.186 C 
HETATM   13  O   UNK N   1      10.776  -9.066   8.260  0.00  0.00    -0.206 OA
HETATM   14  O   UNK N   1      12.256  -8.132   6.621  0.00  0.00    -0.206 OA
ENDBRANCH   9  11
ENDBRANCH   1   9
BRANCH   6  15
HETATM   15  C   UNK N   1      10.122  -2.909   4.508  0.00  0.00     0.182 C 
HETATM   16  O   UNK N   1      11.206  -2.464   4.861  0.00  0.00    -0.646 OA
BRANCH  15  17
HETATM   17  O   UNK N   1       9.111  -2.052   4.255  0.00  0.00    -0.772 OA
HETATM   18  H   UNK N   1       9.218  -1.098   4.378  0.00  0.00     0.167 HD
ENDBRANCH  15  17
ENDBRANCH   6  15
TORSDOF 4
ENDMDL
MODEL 5
REMARK VINA RESULT:      -6.1      2.674      3.131
REMARK  4 active torsions:
REMARK  status: ('A' for Active; 'I' for Inactive)
REMARK    1  A    between atoms: S_2  and  N_5 
REMARK    2  A    between atoms: N_5  and  C_6 
REMARK    3  A    between atoms: C_11  and  C_12 
REMARK    4  A    between atoms: C_12  and  O_14 
ROOT
HETATM    1  C   UNK N   1      10.902  -5.444   3.749  0.00  0.00     0.082 A 
HETATM    2  C   UNK N   1      11.807  -5.658   2.693  0.00  0.00     0.036 A 
HETATM    3  C   UNK N   1      12.570  -4.605   2.193  0.00  0.00     0.046 A 
HETATM    4  C   UNK N   1      12.441  -3.321   2.721  0.00  0.00     0.136 A 
HETATM    5  F   UNK N   1      13.200  -2.325   2.202  0.00  0.00    -0.205 F 
HETATM    6  C   UNK N   1      11.535  -3.073   3.776  0.00  0.00     0.117 A 
HETATM    7  C   UNK N   1      10.772  -4.149   4.287  0.00  0.00     0.163 A 
HETATM    8  F   UNK N   1       9.885  -3.940   5.295  0.00  0.00    -0.202 F 
ENDROOT
BRANCH   1   9
HETATM    9  N   UNK N   1      10.108  -6.508   4.276  0.00  0.00    -0.282 N 
HETATM   10  H   UNK N   1       9.349  -6.905   3.703  0.00  0.00     0.178 HD
BRANCH   9  11
HETATM   11  S   UNK N   1      10.561  -7.390   5.726  0.00  0.00     0.227 S 
HETATM   12  C   UNK N   1      10.319  -9.179   5.616  0.00  0.00     0.186 C 
HETATM   13  O   UNK N   1       9.711  -6.753   6.836  0.00  0.00    -0.206 OA
HETATM   14  O   UNK N   1      11.981  -6.926   6.086  0.00  0.00    -0.206 OA
ENDBRANCH   9  11
ENDBRANCH   1   9
BRANCH   6  15
HETATM   15  C   UNK N   1      11.385  -1.696   4.335  0.00  0.00     0.182 C 
HETATM   16  O   UNK N   1      10.452  -0.986   3.987  0.00  0.00    -0.646 OA
BRANCH  15  17
HETATM   17  O   UNK N   1      12.278  -1.218   5.228  0.00  0.00    -0.772 OA
HETATM   18  H   UNK N   1      13.205  -1.492   5.207  0.00  0.00     0.167 HD
ENDBRANCH  15  17
ENDBRANCH   6  15
TORSDOF 4
ENDMDL
MODEL 6
REMARK VINA RESULT:      -6.0      3.962      5.965
REMARK  4 active torsions:
REMARK  status: ('A' for Active; 'I' for Inactive)
REMARK    1  A    between atoms: S_2  and  N_5 
REMARK    2  A    between atoms: N_5  and  C_6 
REMARK    3  A    between atoms: C_11  and  C_12 
REMARK    4  A    between atoms: C_12  and  O_14 
ROOT
HETATM    1  C   UNK N   1      10.796  -3.836   3.105  0.00  0.00     0.082 A 
HETATM    2  C   UNK N   1      11.955  -4.463   2.612  0.00  0.00     0.036 A 
HETATM    3  C   UNK N   1      12.337  -5.716   3.087  0.00  0.00     0.046 A 
HETATM    4  C   UNK N   1      11.583  -6.364   4.065  0.00  0.00     0.136 A 
HETATM    5  F   UNK N   1      11.993  -7.580   4.502  0.00  0.00    -0.205 F 
HETATM    6  C   UNK N   1      10.418  -5.757   4.585  0.00  0.00     0.117 A 
HETATM    7  C   UNK N   1      10.031  -4.490   4.090  0.00  0.00     0.163 A 
HETATM    8  F   UNK N   1       8.920  -3.877   4.577  0.00  0.00    -0.202 F 
ENDROOT
BRANCH   1   9
HETATM    9  N   UNK N   1      10.386  -2.550   2.635  0.00  0.00    -0.282 N 
HETATM   10  H   UNK N   1       9.739  -2.487   1.835  0.00  0.00     0.178 HD
BRANCH   9  11
HETATM   11  S   UNK N   1      10.677  -1.079   3.548  0.00  0.00     0.227 S 
HETATM   12  C   UNK N   1      11.631   0.174   2.657  0.00  0.00     0.186 C 
HETATM   13  O   UNK N   1      11.390  -1.559   4.821  0.00  0.00    -0.206 OA
HETATM   14  O   UNK N   1       9.309  -0.626   4.082  0.00  0.00    -0.206 OA
ENDBRANCH   9  11
ENDBRANCH   1   9
BRANCH   6  15
HETATM   15  C   UNK N   1       9.616  -6.443   5.641  0.00  0.00     0.182 C 
HETATM   16  O   UNK N   1       9.546  -5.972   6.768  0.00  0.00    -0.646 OA
BRANCH  15  17
HETATM   17  O   UNK N   1       8.962  -7.592   5.368  0.00  0.00    -0.772 OA
HETATM   18  H   UNK N   1       9.431  -8.437   5.314  0.00  0.00     0.167 HD
ENDBRANCH  15  17
ENDBRANCH   6  15
TORSDOF 4
ENDMDL
MODEL 7
REMARK VINA RESULT:      -6.0      4.342      6.081
REMARK  4 active torsions:
REMARK  status: ('A' for Active; 'I' for Inactive)
REMARK    1  A    between atoms: S_2  and  N_5 
REMARK    2  A    between atoms: N_5  and  C_6 
REMARK    3  A    between atoms: C_11  and  C_12 
REMARK    4  A    between atoms: C_12  and  O_14 
ROOT
HETATM    1  C   UNK N   1      12.173  -4.104   3.098  0.00  0.00     0.082 A 
HETATM    2  C   UNK N   1      12.209  -5.492   2.865  0.00  0.00     0.036 A 
HETATM    3  C   UNK N   1      11.385  -6.351   3.590  0.00  0.00     0.046 A 
HETATM    4  C   UNK N   1      10.520  -5.852   4.564  0.00  0.00     0.136 A 
HETATM    5  F   UNK N   1       9.739  -6.724   5.247  0.00  0.00    -0.205 F 
HETATM    6  C   UNK N   1      10.467  -4.465   4.825  0.00  0.00     0.117 A 
HETATM    7  C   UNK N   1      11.297  -3.598   4.078  0.00  0.00     0.163 A 
HETATM    8  F   UNK N   1      11.275  -2.259   4.313  0.00  0.00    -0.202 F 
ENDROOT
BRANCH   1   9
HETATM    9  N   UNK N   1      13.010  -3.205   2.369  0.00  0.00    -0.282 N 
HETATM   10  H   UNK N   1      13.934  -2.955   2.748  0.00  0.00     0.178 HD
BRANCH   9  11
HETATM   11  S   UNK N   1      12.677  -2.750   0.705  0.00  0.00     0.227 S 
HETATM   12  C   UNK N   1      13.247  -1.092   0.258  0.00  0.00     0.186 C 
HETATM   13  O   UNK N   1      11.154  -2.900   0.570  0.00  0.00    -0.206 OA
HETATM   14  O   UNK N   1      13.204  -3.899  -0.168  0.00  0.00    -0.206 OA
ENDBRANCH   9  11
ENDBRANCH   1   9
BRANCH   6  15
HETATM   15  C   UNK N   1       9.551  -3.930   5.876  0.00  0.00     0.182 C 
HETATM   16  O   UNK N   1       8.408  -3.599   5.591  0.00  0.00    -0.646 OA
BRANCH  15  17
HETATM   17  O   UNK N   1       9.972  -3.802   7.152  0.00  0.00    -0.772 OA
HETATM   18  H   UNK N   1       9.693  -3.056   7.701  0.00  0.00     0.167 HD
ENDBRANCH  15  17
ENDBRANCH   6  15
TORSDOF 4
ENDMDL
MODEL 8
REMARK VINA RESULT:      -5.8      4.126      5.619
REMARK  4 active torsions:
REMARK  status: ('A' for Active; 'I' for Inactive)
REMARK    1  A    between atoms: S_2  and  N_5 
REMARK    2  A    between atoms: N_5  and  C_6 
REMARK    3  A    between atoms: C_11  and  C_12 
REMARK    4  A    between atoms: C_12  and  O_14 
ROOT
HETATM    1  C   UNK N   1      11.485  -4.071   3.808  0.00  0.00     0.082 A 
HETATM    2  C   UNK N   1      11.967  -5.327   3.398  0.00  0.00     0.036 A 
HETATM    3  C   UNK N   1      12.705  -5.451   2.222  0.00  0.00     0.046 A 
HETATM    4  C   UNK N   1      12.968  -4.335   1.428  0.00  0.00     0.136 A 
HETATM    5  F   UNK N   1      13.686  -4.502   0.290  0.00  0.00    -0.205 F 
HETATM    6  C   UNK N   1      12.491  -3.062   1.810  0.00  0.00     0.117 A 
HETATM    7  C   UNK N   1      11.753  -2.942   3.010  0.00  0.00     0.163 A 
HETATM    8  F   UNK N   1      11.273  -1.731   3.399  0.00  0.00    -0.202 F 
ENDROOT
BRANCH   1   9
HETATM    9  N   UNK N   1      10.725  -3.920   5.008  0.00  0.00    -0.282 N 
HETATM   10  H   UNK N   1      11.043  -3.255   5.728  0.00  0.00     0.178 HD
BRANCH   9  11
HETATM   11  S   UNK N   1       9.104  -4.574   5.183  0.00  0.00     0.227 S 
HETATM   12  C   UNK N   1       8.204  -4.760   3.626  0.00  0.00     0.186 C 
HETATM   13  O   UNK N   1       8.407  -3.603   6.149  0.00  0.00    -0.206 OA
HETATM   14  O   UNK N   1       9.244  -5.847   6.034  0.00  0.00    -0.206 OA
ENDBRANCH   9  11
ENDBRANCH   1   9
BRANCH   6  15
HETATM   15  C   UNK N   1      12.761  -1.867   0.955  0.00  0.00     0.182 C 
HETATM   16  O   UNK N   1      13.602  -1.045   1.290  0.00  0.00    -0.646 OA
BRANCH  15  17
HETATM   17  O   UNK N   1      12.079  -1.679  -0.195  0.00  0.00    -0.772 OA
HETATM   18  H   UNK N   1      11.226  -1.223  -0.204  0.00  0.00     0.167 HD
ENDBRANCH  15  17
ENDBRANCH   6  15
TORSDOF 4
ENDMDL
MODEL 9
REMARK VINA RESULT:      -5.7      3.488      4.423
REMARK  4 active torsions:
REMARK  status: ('A' for Active; 'I' for Inactive)
REMARK    1  A    between atoms: S_2  and  N_5 
REMARK    2  A    between atoms: N_5  and  C_6 
REMARK    3  A    between atoms: C_11  and  C_12 
REMARK    4  A    between atoms: C_12  and  O_14 
ROOT
HETATM    1  C   UNK N   1      11.088  -5.166   3.546  0.00  0.00     0.082 A 
HETATM    2  C   UNK N   1      12.437  -5.247   3.156  0.00  0.00     0.036 A 
HETATM    3  C   UNK N   1      12.793  -5.117   1.815  0.00  0.00     0.046 A 
HETATM    4  C   UNK N   1      11.818  -4.915   0.838  0.00  0.00     0.136 A 
HETATM    5  F   UNK N   1      12.209  -4.796  -0.455  0.00  0.00    -0.205 F 
HETATM    6  C   UNK N   1      10.455  -4.836   1.198  0.00  0.00     0.117 A 
HETATM    7  C   UNK N   1      10.102  -4.958   2.562  0.00  0.00     0.163 A 
HETATM    8  F   UNK N   1       8.798  -4.897   2.939  0.00  0.00    -0.202 F 
ENDROOT
BRANCH   1   9
HETATM    9  N   UNK N   1      10.699  -5.300   4.915  0.00  0.00    -0.282 N 
HETATM   10  H   UNK N   1      10.385  -4.467   5.434  0.00  0.00     0.178 HD
BRANCH   9  11
HETATM   11  S   UNK N   1      10.426  -6.863   5.667  0.00  0.00     0.227 S 
HETATM   12  C   UNK N   1       9.623  -8.077   4.592  0.00  0.00     0.186 C 
HETATM   13  O   UNK N   1       9.588  -6.541   6.914  0.00  0.00    -0.206 OA
HETATM   14  O   UNK N   1      11.773  -7.291   6.271  0.00  0.00    -0.206 OA
ENDBRANCH   9  11
ENDBRANCH   1   9
BRANCH   6  15
HETATM   15  C   UNK N   1       9.408  -4.633   0.153  0.00  0.00     0.182 C 
HETATM   16  O   UNK N   1       8.901  -5.594  -0.410  0.00  0.00    -0.646 OA
BRANCH  15  17
HETATM   17  O   UNK N   1       9.010  -3.388  -0.187  0.00  0.00    -0.772 OA
HETATM   18  H   UNK N   1       8.258  -3.245  -0.778  0.00  0.00     0.167 HD
ENDBRANCH  15  17
ENDBRANCH   6  15
TORSDOF 4
ENDMDL
