MODEL 1
REMARK VINA RESULT:      -7.1      0.000      0.000
REMARK  3 active torsions:
REMARK  status: ('A' for Active; 'I' for Inactive)
REMARK       I    between atoms: N_1  and  C_2 
REMARK    1  A    between atoms: C_2  and  C_4 
REMARK    2  A    between atoms: C_4  and  C_5 
REMARK    3  A    between atoms: C_7  and  C_8 
ROOT
HETATM    1  C   UNK N   1      10.095  -6.939   5.479  0.00  0.00     0.003 A 
HETATM    2  C   UNK N   1       9.662  -7.873   4.372  0.00  0.00     0.015 A 
HETATM    3  C   UNK N   1      11.079  -7.991   4.972  0.00  0.00     0.027 A 
ENDROOT
BRANCH   3   4
HETATM    4  C   UNK N   1      11.296  -9.075   6.005  0.00  0.00    -0.012 A 
HETATM    5  C   UNK N   1      10.931  -8.837   7.340  0.00  0.00     0.052 A 
HETATM    6  C   UNK N   1      11.104  -9.831   8.309  0.00  0.00     0.117 A 
HETATM    7  F   UNK N   1      10.740  -9.596   9.593  0.00  0.00    -0.206 F 
HETATM    8  C   UNK N   1      11.647 -11.068   7.953  0.00  0.00     0.045 A 
HETATM    9  C   UNK N   1      12.013 -11.316   6.628  0.00  0.00     0.046 A 
HETATM   10  C   UNK N   1      11.834 -10.330   5.651  0.00  0.00     0.123 A 
HETATM   11  F   UNK N   1      12.191 -10.594   4.369  0.00  0.00    -0.206 F 
ENDBRANCH   3   4
BRANCH   1  12
HETATM   12  C   UNK N   1      10.219  -5.493   4.978  0.00  0.00     0.108 C 
BRANCH  12  13
HETATM   13  C   UNK N   1       9.470  -4.553   5.882  0.00  0.00     0.215 C 
HETATM   14  N   UNK N   1      10.093  -3.943   6.918  0.00  0.00    -0.370 N 
HETATM   15  H   UNK N   1      11.097  -4.096   7.093  0.00  0.00     0.159 HD
HETATM   16  H   UNK N   1       9.575  -3.294   7.529  0.00  0.00     0.159 HD
HETATM   17  O   UNK N   1       8.288  -4.323   5.668  0.00  0.00    -0.274 OA
ENDBRANCH  12  13
ENDBRANCH   1  12
TORSDOF 3
ENDMDL
MODEL 2
REMARK VINA RESULT:      -6.4      4.801      6.673
REMARK  3 active torsions:
REMARK  status: ('A' for Active; 'I' for Inactive)
REMARK       I    between atoms: N_1  and  C_2 
REMARK    1  A    between atoms: C_2  and  C_4 
REMARK    2  A    between atoms: C_4  and  C_5 
REMARK    3  A    between atoms: C_7  and  C_8 
ROOT
HETATM    1  C   UNK N   1      10.417  -4.848   3.912  0.00  0.00     0.003 A 
HETATM    2  C   UNK N   1      11.554  -5.793   4.223  0.00  0.00     0.015 A 
HETATM    3  C   UNK N   1      10.799  -5.909   2.882  0.00  0.00     0.027 A 
ENDROOT
BRANCH   3   4
HETATM    4  C   UNK N   1      11.454  -5.280   1.672  0.00  0.00    -0.012 A 
HETATM    5  C   UNK N   1      12.849  -5.113   1.653  0.00  0.00     0.052 A 
HETATM    6  C   UNK N   1      13.478  -4.552   0.537  0.00  0.00     0.117 A 
HETATM    7  F   UNK N   1      14.826  -4.403   0.523  0.00  0.00    -0.206 F 
HETATM    8  C   UNK N   1      12.721  -4.148  -0.565  0.00  0.00     0.045 A 
HETATM    9  C   UNK N   1      11.333  -4.310  -0.558  0.00  0.00     0.046 A 
HETATM   10  C   UNK N   1      10.696  -4.880   0.551  0.00  0.00     0.123 A 
HETATM   11  F   UNK N   1       9.349  -5.034   0.535  0.00  0.00    -0.206 F 
ENDBRANCH   3   4
BRANCH   1  12
HETATM   12  C   UNK N   1       9.213  -5.095   4.832  0.00  0.00     0.108 C 
BRANCH  12  13
HETATM   13  C   UNK N   1       9.625  -5.012   6.276  0.00  0.00     0.215 C 
HETATM   14  N   UNK N   1      10.042  -3.841   6.813  0.00  0.00    -0.370 N 
HETATM   15  H   UNK N   1      10.066  -2.981   6.246  0.00  0.00     0.159 HD
HETATM   16  H   UNK N   1      10.316  -3.790   7.805  0.00  0.00     0.159 HD
HETATM   17  O   UNK N   1       9.564  -6.011   6.980  0.00  0.00    -0.274 OA
ENDBRANCH  12  13
ENDBRANCH   1  12
TORSDOF 3
ENDMDL
MODEL 3
REMARK VINA RESULT:      -6.4      1.677      2.019
REMARK  3 active torsions:
REMARK  status: ('A' for Active; 'I' for Inactive)
REMARK       I    between atoms: N_1  and  C_2 
REMARK    1  A    between atoms: C_2  and  C_4 
REMARK    2  A    between atoms: C_4  and  C_5 
REMARK    3  A    between atoms: C_7  and  C_8 
ROOT
HETATM    1  C   UNK N   1       9.878  -6.776   5.383  0.00  0.00     0.003 A 
HETATM    2  C   UNK N   1       9.035  -7.429   4.312  0.00  0.00     0.015 A 
HETATM    3  C   UNK N   1      10.458  -7.952   4.602  0.00  0.00     0.027 A 
ENDROOT
BRANCH   3   4
HETATM    4  C   UNK N   1      10.569  -9.182   5.476  0.00  0.00    -0.012 A 
HETATM    5  C   UNK N   1       9.695 -10.261   5.261  0.00  0.00     0.052 A 
HETATM    6  C   UNK N   1       9.792 -11.416   6.044  0.00  0.00     0.117 A 
HETATM    7  F   UNK N   1       8.951 -12.456   5.824  0.00  0.00    -0.206 F 
HETATM    8  C   UNK N   1      10.757 -11.501   7.050  0.00  0.00     0.045 A 
HETATM    9  C   UNK N   1      11.632 -10.435   7.272  0.00  0.00     0.046 A 
HETATM   10  C   UNK N   1      11.548  -9.279   6.486  0.00  0.00     0.123 A 
HETATM   11  F   UNK N   1      12.412  -8.258   6.715  0.00  0.00    -0.206 F 
ENDBRANCH   3   4
BRANCH   1  12
HETATM   12  C   UNK N   1      10.275  -5.345   4.991  0.00  0.00     0.108 C 
BRANCH  12  13
HETATM   13  C   UNK N   1       9.502  -4.340   5.799  0.00  0.00     0.215 C 
HETATM   14  N   UNK N   1      10.036  -3.789   6.915  0.00  0.00    -0.370 N 
HETATM   15  H   UNK N   1      10.990  -4.034   7.219  0.00  0.00     0.159 HD
HETATM   16  H   UNK N   1       9.504  -3.095   7.460  0.00  0.00     0.159 HD
HETATM   17  O   UNK N   1       8.385  -4.001   5.434  0.00  0.00    -0.274 OA
ENDBRANCH  12  13
ENDBRANCH   1  12
TORSDOF 3
ENDMDL
MODEL 4
REMARK VINA RESULT:      -6.2      4.213      6.506
REMARK  3 active torsions:
REMARK  status: ('A' for Active; 'I' for Inactive)
REMARK       I    between atoms: N_1  and  C_2 
REMARK    1  A    between atoms: C_2  and  C_4 
REMARK    2  A    between atoms: C_4  and  C_5 
REMARK    3  A    between atoms: C_7  and  C_8 
ROOT
HETATM    1  C   UNK N   1      11.530  -7.129   4.519  0.00  0.00     0.003 A 
HETATM    2  C   UNK N   1      10.074  -7.358   4.180  0.00  0.00     0.015 A 
HETATM    3  C   UNK N   1      10.678  -5.942   4.076  0.00  0.00     0.027 A 
ENDROOT
BRANCH   3   4
HETATM    4  C   UNK N   1      11.080  -5.470   2.696  0.00  0.00    -0.012 A 
HETATM    5  C   UNK N   1      12.443  -5.377   2.369  0.00  0.00     0.052 A 
HETATM    6  C   UNK N   1      12.838  -4.962   1.093  0.00  0.00     0.117 A 
HETATM    7  F   UNK N   1      14.156  -4.885   0.784  0.00  0.00    -0.206 F 
HETATM    8  C   UNK N   1      11.877  -4.632   0.135  0.00  0.00     0.045 A 
HETATM    9  C   UNK N   1      10.518  -4.722   0.448  0.00  0.00     0.046 A 
HETATM   10  C   UNK N   1      10.114  -5.146   1.720  0.00  0.00     0.123 A 
HETATM   11  F   UNK N   1       8.790  -5.232   2.001  0.00  0.00    -0.206 F 
ENDBRANCH   3   4
BRANCH   1  12
HETATM   12  C   UNK N   1      11.799  -7.342   6.016  0.00  0.00     0.108 C 
BRANCH  12  13
HETATM   13  C   UNK N   1      11.380  -8.724   6.438  0.00  0.00     0.215 C 
HETATM   14  N   UNK N   1      10.414  -8.902   7.369  0.00  0.00    -0.370 N 
HETATM   15  H   UNK N   1       9.934  -8.094   7.792  0.00  0.00     0.159 HD
HETATM   16  H   UNK N   1      10.127  -9.852   7.648  0.00  0.00     0.159 HD
HETATM   17  O   UNK N   1      11.906  -9.699   5.919  0.00  0.00    -0.274 OA
ENDBRANCH  12  13
ENDBRANCH   1  12
TORSDOF 3
ENDMDL
MODEL 5
REMARK VINA RESULT:      -6.1      5.180      7.079
REMARK  3 active torsions:
REMARK  status: ('A' for Active; 'I' for Inactive)
REMARK       I    between atoms: N_1  and  C_2 
REMARK    1  A    between atoms: C_2  and  C_4 
REMARK    2  A    between atoms: C_4  and  C_5 
REMARK    3  A    between atoms: C_7  and  C_8 
ROOT
HETATM    1  C   UNK N   1      13.777 -13.244   7.306  0.00  0.00     0.003 A 
HETATM    2  C   UNK N   1      14.343 -12.839   5.964  0.00  0.00     0.015 A 
HETATM    3  C   UNK N   1      12.816 -12.849   6.186  0.00  0.00     0.027 A 
ENDROOT
BRANCH   3   4
HETATM    4  C   UNK N   1      12.160 -11.518   6.478  0.00  0.00    -0.012 A 
HETATM    5  C   UNK N   1      11.808 -11.199   7.800  0.00  0.00     0.052 A 
HETATM    6  C   UNK N   1      11.217  -9.966   8.097  0.00  0.00     0.117 A 
HETATM    7  F   UNK N   1      10.890  -9.662   9.377  0.00  0.00    -0.206 F 
HETATM    8  C   UNK N   1      10.968  -9.045   7.077  0.00  0.00     0.045 A 
HETATM    9  C   UNK N   1      11.314  -9.351   5.758  0.00  0.00     0.046 A 
HETATM   10  C   UNK N   1      11.915 -10.579   5.454  0.00  0.00     0.123 A 
HETATM   11  F   UNK N   1      12.249 -10.853   4.168  0.00  0.00    -0.206 F 
ENDBRANCH   3   4
BRANCH   1  12
HETATM   12  C   UNK N   1      14.022 -14.732   7.593  0.00  0.00     0.108 C 
BRANCH  12  13
HETATM   13  C   UNK N   1      15.238 -14.911   8.460  0.00  0.00     0.215 C 
HETATM   14  N   UNK N   1      15.132 -14.930   9.810  0.00  0.00    -0.370 N 
HETATM   15  H   UNK N   1      14.212 -14.843  10.266  0.00  0.00     0.159 HD
HETATM   16  H   UNK N   1      15.968 -15.060  10.397  0.00  0.00     0.159 HD
HETATM   17  O   UNK N   1      16.335 -15.059   7.939  0.00  0.00    -0.274 OA
ENDBRANCH  12  13
ENDBRANCH   1  12
TORSDOF 3
ENDMDL
MODEL 6
REMARK VINA RESULT:      -6.1      5.047      7.101
REMARK  3 active torsions:
REMARK  status: ('A' for Active; 'I' for Inactive)
REMARK       I    between atoms: N_1  and  C_2 
REMARK    1  A    between atoms: C_2  and  C_4 
REMARK    2  A    between atoms: C_4  and  C_5 
REMARK    3  A    between atoms: C_7  and  C_8 
ROOT
HETATM    1  C   UNK N   1      10.578  -4.493   3.448  0.00  0.00     0.003 A 
HETATM    2  C   UNK N   1      11.863  -3.714   3.615  0.00  0.00     0.015 A 
HETATM    3  C   UNK N   1      11.844  -4.999   2.760  0.00  0.00     0.027 A 
ENDROOT
BRANCH   3   4
HETATM    4  C   UNK N   1      11.756  -4.820   1.260  0.00  0.00    -0.012 A 
HETATM    5  C   UNK N   1      10.500  -4.868   0.634  0.00  0.00     0.052 A 
HETATM    6  C   UNK N   1      10.391  -4.686  -0.749  0.00  0.00     0.117 A 
HETATM    7  F   UNK N   1       9.174  -4.724  -1.344  0.00  0.00    -0.206 F 
HETATM    8  C   UNK N   1      11.536  -4.461  -1.517  0.00  0.00     0.045 A 
HETATM    9  C   UNK N   1      12.791  -4.411  -0.905  0.00  0.00     0.046 A 
HETATM   10  C   UNK N   1      12.907  -4.582   0.479  0.00  0.00     0.123 A 
HETATM   11  F   UNK N   1      14.134  -4.524   1.054  0.00  0.00    -0.206 F 
ENDBRANCH   3   4
BRANCH   1  12
HETATM   12  C   UNK N   1      10.135  -5.136   4.770  0.00  0.00     0.108 C 
BRANCH  12  13
HETATM   13  C   UNK N   1       9.533  -4.106   5.684  0.00  0.00     0.215 C 
HETATM   14  N   UNK N   1      10.048  -3.886   6.918  0.00  0.00    -0.370 N 
HETATM   15  H   UNK N   1      10.874  -4.408   7.243  0.00  0.00     0.159 HD
HETATM   16  H   UNK N   1       9.634  -3.173   7.536  0.00  0.00     0.159 HD
HETATM   17  O   UNK N   1       8.577  -3.444   5.303  0.00  0.00    -0.274 OA
ENDBRANCH  12  13
ENDBRANCH   1  12
TORSDOF 3
ENDMDL
MODEL 7
REMARK VINA RESULT:      -6.0      2.217      3.296
REMARK  3 active torsions:
REMARK  status: ('A' for Active; 'I' for Inactive)
REMARK       I    between atoms: N_1  and  C_2 
REMARK    1  A    between atoms: C_2  and  C_4 
REMARK    2  A    between atoms: C_4  and  C_5 
REMARK    3  A    between atoms: C_7  and  C_8 
ROOT
HETATM    1  C   UNK N   1      11.245  -7.147   4.515  0.00  0.00     0.003 A 
HETATM    2  C   UNK N   1      10.901  -6.590   5.877  0.00  0.00     0.015 A 
HETATM    3  C   UNK N   1      10.278  -7.921   5.408  0.00  0.00     0.027 A 
ENDROOT
BRANCH   3   4
HETATM    4  C   UNK N   1      10.915  -9.193   5.923  0.00  0.00    -0.012 A 
HETATM    5  C   UNK N   1      11.700  -9.971   5.055  0.00  0.00     0.052 A 
HETATM    6  C   UNK N   1      12.315 -11.140   5.515  0.00  0.00     0.117 A 
HETATM    7  F   UNK N   1      13.079 -11.879   4.673  0.00  0.00    -0.206 F 
HETATM    8  C   UNK N   1      12.147 -11.546   6.841  0.00  0.00     0.045 A 
HETATM    9  C   UNK N   1      11.369 -10.780   7.713  0.00  0.00     0.046 A 
HETATM   10  C   UNK N   1      10.758  -9.603   7.264  0.00  0.00     0.123 A 
HETATM   11  F   UNK N   1      10.012  -8.871   8.129  0.00  0.00    -0.206 F 
ENDBRANCH   3   4
BRANCH   1  12
HETATM   12  C   UNK N   1      10.684  -6.265   3.389  0.00  0.00     0.108 C 
BRANCH  12  13
HETATM   13  C   UNK N   1      11.792  -5.519   2.699  0.00  0.00     0.215 C 
HETATM   14  N   UNK N   1      12.799  -4.958   3.410  0.00  0.00    -0.370 N 
HETATM   15  H   UNK N   1      12.834  -5.049   4.436  0.00  0.00     0.159 HD
HETATM   16  H   UNK N   1      13.559  -4.454   2.930  0.00  0.00     0.159 HD
HETATM   17  O   UNK N   1      11.794  -5.434   1.478  0.00  0.00    -0.274 OA
ENDBRANCH  12  13
ENDBRANCH   1  12
TORSDOF 3
ENDMDL
MODEL 8
REMARK VINA RESULT:      -6.0      4.086      6.455
REMARK  3 active torsions:
REMARK  status: ('A' for Active; 'I' for Inactive)
REMARK       I    between atoms: N_1  and  C_2 
REMARK    1  A    between atoms: C_2  and  C_4 
REMARK    2  A    between atoms: C_4  and  C_5 
REMARK    3  A    between atoms: C_7  and  C_8 
ROOT
HETATM    1  C   UNK N   1       9.650  -6.830   3.467  0.00  0.00     0.003 A 
HETATM    2  C   UNK N   1       8.585  -5.898   2.935  0.00  0.00     0.015 A 
HETATM    3  C   UNK N   1       9.966  -5.341   3.340  0.00  0.00     0.027 A 
ENDROOT
BRANCH   3   4
HETATM    4  C   UNK N   1      10.956  -5.090   2.224  0.00  0.00    -0.012 A 
HETATM    5  C   UNK N   1      10.482  -4.756   0.945  0.00  0.00     0.052 A 
HETATM    6  C   UNK N   1      11.380  -4.500  -0.098  0.00  0.00     0.117 A 
HETATM    7  F   UNK N   1      10.913  -4.169  -1.327  0.00  0.00    -0.206 F 
HETATM    8  C   UNK N   1      12.756  -4.582   0.127  0.00  0.00     0.045 A 
HETATM    9  C   UNK N   1      13.239  -4.913   1.396  0.00  0.00     0.046 A 
HETATM   10  C   UNK N   1      12.348  -5.160   2.447  0.00  0.00     0.123 A 
HETATM   11  F   UNK N   1      12.838  -5.474   3.672  0.00  0.00    -0.206 F 
ENDBRANCH   3   4
BRANCH   1  12
HETATM   12  C   UNK N   1       9.263  -7.399   4.840  0.00  0.00     0.108 C 
BRANCH  12  13
HETATM   13  C   UNK N   1      10.105  -6.787   5.925  0.00  0.00     0.215 C 
HETATM   14  N   UNK N   1      11.424  -7.078   6.027  0.00  0.00    -0.370 N 
HETATM   15  H   UNK N   1      11.877  -7.710   5.351  0.00  0.00     0.159 HD
HETATM   16  H   UNK N   1      11.996  -6.649   6.769  0.00  0.00     0.159 HD
HETATM   17  O   UNK N   1       9.597  -6.001   6.713  0.00  0.00    -0.274 OA
ENDBRANCH  12  13
ENDBRANCH   1  12
TORSDOF 3
ENDMDL
MODEL 9
REMARK VINA RESULT:      -6.0      4.672      6.866
REMARK  3 active torsions:
REMARK  status: ('A' for Active; 'I' for Inactive)
REMARK       I    between atoms: N_1  and  C_2 
REMARK    1  A    between atoms: C_2  and  C_4 
REMARK    2  A    between atoms: C_4  and  C_5 
REMARK    3  A    between atoms: C_7  and  C_8 
ROOT
HETATM    1  C   UNK N   1      11.050  -5.309   4.212  0.00  0.00     0.003 A 
HETATM    2  C   UNK N   1      12.210  -6.208   3.849  0.00  0.00     0.015 A 
HETATM    3  C   UNK N   1      11.541  -5.336   2.766  0.00  0.00     0.027 A 
ENDROOT
BRANCH   3   4
HETATM    4  C   UNK N   1      12.236  -4.042   2.405  0.00  0.00    -0.012 A 
HETATM    5  C   UNK N   1      11.897  -2.863   3.089  0.00  0.00     0.052 A 
HETATM    6  C   UNK N   1      12.541  -1.659   2.786  0.00  0.00     0.117 A 
HETATM    7  F   UNK N   1      12.214  -0.528   3.459  0.00  0.00    -0.206 F 
HETATM    8  C   UNK N   1      13.523  -1.620   1.794  0.00  0.00     0.045 A 
HETATM    9  C   UNK N   1      13.869  -2.787   1.107  0.00  0.00     0.046 A 
HETATM   10  C   UNK N   1      13.237  -3.998   1.412  0.00  0.00     0.123 A 
HETATM   11  F   UNK N   1      13.593  -5.120   0.736  0.00  0.00    -0.206 F 
ENDBRANCH   3   4
BRANCH   1  12
HETATM   12  C   UNK N   1       9.807  -6.125   4.597  0.00  0.00     0.108 C 
BRANCH  12  13
HETATM   13  C   UNK N   1       9.782  -6.385   6.078  0.00  0.00     0.215 C 
HETATM   14  N   UNK N   1       9.960  -7.635   6.566  0.00  0.00    -0.370 N 
HETATM   15  H   UNK N   1      10.135  -8.428   5.931  0.00  0.00     0.159 HD
HETATM   16  H   UNK N   1       9.949  -7.805   7.582  0.00  0.00     0.159 HD
HETATM   17  O   UNK N   1       9.617  -5.452   6.853  0.00  0.00    -0.274 OA
ENDBRANCH  12  13
ENDBRANCH   1  12
TORSDOF 3
ENDMDL
