MODEL 1
REMARK VINA RESULT:      -6.6      0.000      0.000
REMARK  3 active torsions:
REMARK  status: ('A' for Active; 'I' for Inactive)
REMARK    1  A    between atoms: S_2  and  C_5 
REMARK    2  A    between atoms: C_11  and  C_12 
REMARK    3  A    between atoms: C_12  and  O_14 
ROOT
HETATM    1  C   UNK N   1      11.132  -3.839   3.977  0.00  0.00     0.078 A 
HETATM    2  C   UNK N   1      11.945  -4.470   3.020  0.00  0.00     0.025 A 
HETATM    3  C   UNK N   1      12.032  -5.858   2.961  0.00  0.00     0.005 A 
HETATM    4  C   UNK N   1      11.303  -6.641   3.849  0.00  0.00     0.043 A 
HETATM    5  C   UNK N   1      10.487  -6.045   4.810  0.00  0.00     0.134 A 
HETATM    6  F   UNK N   1       9.800  -6.852   5.658  0.00  0.00    -0.205 F 
HETATM    7  C   UNK N   1      10.388  -4.635   4.903  0.00  0.00     0.097 A 
ENDROOT
BRANCH   1   8
HETATM    8  S   UNK N   1      11.003  -2.033   3.924  0.00  0.00     0.172 S 
HETATM    9  C   UNK N   1      11.799  -1.035   2.630  0.00  0.00     0.167 C 
HETATM   10  O   UNK N   1      11.515  -1.484   5.266  0.00  0.00    -0.223 OA
HETATM   11  O   UNK N   1       9.526  -1.629   4.052  0.00  0.00    -0.223 OA
ENDBRANCH   1   8
BRANCH   7  12
HETATM   12  C   UNK N   1       9.505  -4.043   5.960  0.00  0.00     0.180 C 
HETATM   13  O   UNK N   1       8.295  -3.982   5.807  0.00  0.00    -0.646 OA
BRANCH  12  14
HETATM   14  O   UNK N   1      10.037  -3.548   7.097  0.00  0.00    -0.772 OA
HETATM   15  H   UNK N   1       9.571  -2.879   7.617  0.00  0.00     0.167 HD
ENDBRANCH  12  14
ENDBRANCH   7  12
TORSDOF 3
ENDMDL
MODEL 2
REMARK VINA RESULT:      -6.3      2.552      3.972
REMARK  3 active torsions:
REMARK  status: ('A' for Active; 'I' for Inactive)
REMARK    1  A    between atoms: S_2  and  C_5 
REMARK    2  A    between atoms: C_11  and  C_12 
REMARK    3  A    between atoms: C_12  and  O_14 
ROOT
HETATM    1  C   UNK N   1      11.015  -5.582   4.479  0.00  0.00     0.078 A 
HETATM    2  C   UNK N   1      11.908  -5.815   3.419  0.00  0.00     0.025 A 
HETATM    3  C   UNK N   1      12.358  -4.767   2.621  0.00  0.00     0.005 A 
HETATM    4  C   UNK N   1      11.934  -3.468   2.872  0.00  0.00     0.043 A 
HETATM    5  C   UNK N   1      11.047  -3.203   3.916  0.00  0.00     0.134 A 
HETATM    6  F   UNK N   1      10.657  -1.919   4.117  0.00  0.00    -0.205 F 
HETATM    7  C   UNK N   1      10.561  -4.251   4.736  0.00  0.00     0.097 A 
ENDROOT
BRANCH   1   8
HETATM    8  S   UNK N   1      10.552  -6.986   5.525  0.00  0.00     0.172 S 
HETATM    9  C   UNK N   1       9.753  -8.478   4.859  0.00  0.00     0.167 C 
HETATM   10  O   UNK N   1       9.628  -6.464   6.636  0.00  0.00    -0.223 OA
HETATM   11  O   UNK N   1      11.758  -7.389   6.390  0.00  0.00    -0.223 OA
ENDBRANCH   1   8
BRANCH   7  12
HETATM   12  C   UNK N   1       9.603  -3.916   5.840  0.00  0.00     0.180 C 
HETATM   13  O   UNK N   1       8.423  -3.710   5.607  0.00  0.00    -0.646 OA
BRANCH  12  14
HETATM   14  O   UNK N   1      10.036  -3.819   7.114  0.00  0.00    -0.772 OA
HETATM   15  H   UNK N   1      10.892  -4.185   7.380  0.00  0.00     0.167 HD
ENDBRANCH  12  14
ENDBRANCH   7  12
TORSDOF 3
ENDMDL
MODEL 3
REMARK VINA RESULT:      -6.1      2.336      3.890
REMARK  3 active torsions:
REMARK  status: ('A' for Active; 'I' for Inactive)
REMARK    1  A    between atoms: S_2  and  C_5 
REMARK    2  A    between atoms: C_11  and  C_12 
REMARK    3  A    between atoms: C_12  and  O_14 
ROOT
HETATM    1  C   UNK N   1      10.981  -4.403   3.879  0.00  0.00     0.078 A 
HETATM    2  C   UNK N   1      11.395  -5.535   3.155  0.00  0.00     0.025 A 
HETATM    3  C   UNK N   1      12.330  -5.424   2.131  0.00  0.00     0.005 A 
HETATM    4  C   UNK N   1      12.876  -4.185   1.816  0.00  0.00     0.043 A 
HETATM    5  C   UNK N   1      12.486  -3.043   2.514  0.00  0.00     0.134 A 
HETATM    6  F   UNK N   1      13.042  -1.856   2.165  0.00  0.00    -0.205 F 
HETATM    7  C   UNK N   1      11.526  -3.122   3.553  0.00  0.00     0.097 A 
ENDROOT
BRANCH   1   8
HETATM    8  S   UNK N   1       9.831  -4.648   5.256  0.00  0.00     0.172 S 
HETATM    9  C   UNK N   1       9.490  -6.288   5.964  0.00  0.00     0.167 C 
HETATM   10  O   UNK N   1       8.469  -4.067   4.845  0.00  0.00    -0.223 OA
HETATM   11  O   UNK N   1      10.178  -3.662   6.384  0.00  0.00    -0.223 OA
ENDBRANCH   1   8
BRANCH   7  12
HETATM   12  C   UNK N   1      11.133  -1.864   4.268  0.00  0.00     0.180 C 
HETATM   13  O   UNK N   1      11.923  -1.280   4.993  0.00  0.00    -0.646 OA
BRANCH  12  14
HETATM   14  O   UNK N   1       9.887  -1.364   4.134  0.00  0.00    -0.772 OA
HETATM   15  H   UNK N   1       9.304  -1.262   4.900  0.00  0.00     0.167 HD
ENDBRANCH  12  14
ENDBRANCH   7  12
TORSDOF 3
ENDMDL
MODEL 4
REMARK VINA RESULT:      -6.0      3.041      4.157
REMARK  3 active torsions:
REMARK  status: ('A' for Active; 'I' for Inactive)
REMARK    1  A    between atoms: S_2  and  C_5 
REMARK    2  A    between atoms: C_11  and  C_12 
REMARK    3  A    between atoms: C_12  and  O_14 
ROOT
HETATM    1  C   UNK N   1       9.515  -4.699   3.379  0.00  0.00     0.078 A 
HETATM    2  C   UNK N   1       8.248  -4.910   2.807  0.00  0.00     0.025 A 
HETATM    3  C   UNK N   1       8.114  -5.168   1.445  0.00  0.00     0.005 A 
HETATM    4  C   UNK N   1       9.240  -5.229   0.633  0.00  0.00     0.043 A 
HETATM    5  C   UNK N   1      10.511  -5.023   1.169  0.00  0.00     0.134 A 
HETATM    6  F   UNK N   1      11.578  -5.086   0.334  0.00  0.00    -0.205 F 
HETATM    7  C   UNK N   1      10.678  -4.746   2.548  0.00  0.00     0.097 A 
ENDROOT
BRANCH   1   8
HETATM    8  S   UNK N   1       9.609  -4.463   5.172  0.00  0.00     0.172 S 
HETATM    9  C   UNK N   1      10.143  -5.782   6.304  0.00  0.00     0.167 C 
HETATM   10  O   UNK N   1       8.225  -4.011   5.662  0.00  0.00    -0.223 OA
HETATM   11  O   UNK N   1      10.397  -3.177   5.470  0.00  0.00    -0.223 OA
ENDBRANCH   1   8
BRANCH   7  12
HETATM   12  C   UNK N   1      12.064  -4.524   3.075  0.00  0.00     0.180 C 
HETATM   13  O   UNK N   1      12.819  -5.463   3.274  0.00  0.00    -0.646 OA
BRANCH  12  14
HETATM   14  O   UNK N   1      12.496  -3.277   3.356  0.00  0.00    -0.772 OA
HETATM   15  H   UNK N   1      12.209  -2.518   2.829  0.00  0.00     0.167 HD
ENDBRANCH  12  14
ENDBRANCH   7  12
TORSDOF 3
ENDMDL
MODEL 5
REMARK VINA RESULT:      -5.6      2.146      3.098
REMARK  3 active torsions:
REMARK  status: ('A' for Active; 'I' for Inactive)
REMARK    1  A    between atoms: S_2  and  C_5 
REMARK    2  A    between atoms: C_11  and  C_12 
REMARK    3  A    between atoms: C_12  and  O_14 
ROOT
HETATM    1  C   UNK N   1      10.460  -4.016   4.386  0.00  0.00     0.078 A 
HETATM    2  C   UNK N   1       9.678  -4.096   5.551  0.00  0.00     0.025 A 
HETATM    3  C   UNK N   1       9.607  -5.278   6.283  0.00  0.00     0.005 A 
HETATM    4  C   UNK N   1      10.320  -6.397   5.871  0.00  0.00     0.043 A 
HETATM    5  C   UNK N   1      11.105  -6.350   4.719  0.00  0.00     0.134 A 
HETATM    6  F   UNK N   1      11.777  -7.471   4.354  0.00  0.00    -0.205 F 
HETATM    7  C   UNK N   1      11.187  -5.166   3.946  0.00  0.00     0.097 A 
ENDROOT
BRANCH   1   8
HETATM    8  S   UNK N   1      10.572  -2.415   3.546  0.00  0.00     0.172 S 
HETATM    9  C   UNK N   1      12.113  -1.453   3.478  0.00  0.00     0.167 C 
HETATM   10  O   UNK N   1       9.513  -1.485   4.158  0.00  0.00    -0.223 OA
HETATM   11  O   UNK N   1       9.982  -2.546   2.132  0.00  0.00    -0.223 OA
ENDBRANCH   1   8
BRANCH   7  12
HETATM   12  C   UNK N   1      12.037  -5.169   2.711  0.00  0.00     0.180 C 
HETATM   13  O   UNK N   1      11.566  -5.468   1.625  0.00  0.00    -0.646 OA
BRANCH  12  14
HETATM   14  O   UNK N   1      13.347  -4.857   2.783  0.00  0.00    -0.772 OA
HETATM   15  H   UNK N   1      13.926  -5.276   3.436  0.00  0.00     0.167 HD
ENDBRANCH  12  14
ENDBRANCH   7  12
TORSDOF 3
ENDMDL
MODEL 6
REMARK VINA RESULT:      -5.6      1.493      2.014
REMARK  3 active torsions:
REMARK  status: ('A' for Active; 'I' for Inactive)
REMARK    1  A    between atoms: S_2  and  C_5 
REMARK    2  A    between atoms: C_11  and  C_12 
REMARK    3  A    between atoms: C_12  and  O_14 
ROOT
HETATM    1  C   UNK N   1      10.967  -3.407   2.847  0.00  0.00     0.078 A 
HETATM    2  C   UNK N   1      11.870  -3.872   1.875  0.00  0.00     0.025 A 
HETATM    3  C   UNK N   1      12.494  -5.109   2.016  0.00  0.00     0.005 A 
HETATM    4  C   UNK N   1      12.222  -5.906   3.121  0.00  0.00     0.043 A 
HETATM    5  C   UNK N   1      11.332  -5.472   4.103  0.00  0.00     0.134 A 
HETATM    6  F   UNK N   1      11.104  -6.283   5.167  0.00  0.00    -0.205 F 
HETATM    7  C   UNK N   1      10.691  -4.214   3.995  0.00  0.00     0.097 A 
ENDROOT
BRANCH   1   8
HETATM    8  S   UNK N   1      10.129  -1.831   2.541  0.00  0.00     0.172 S 
HETATM    9  C   UNK N   1      10.310  -0.398   3.646  0.00  0.00     0.167 C 
HETATM   10  O   UNK N   1       8.620  -2.109   2.443  0.00  0.00    -0.223 OA
HETATM   11  O   UNK N   1      10.383  -1.398   1.088  0.00  0.00    -0.223 OA
ENDBRANCH   1   8
BRANCH   7  12
HETATM   12  C   UNK N   1       9.748  -3.789   5.081  0.00  0.00     0.180 C 
HETATM   13  O   UNK N   1      10.167  -3.375   6.150  0.00  0.00    -0.646 OA
BRANCH  12  14
HETATM   14  O   UNK N   1       8.414  -3.874   4.899  0.00  0.00    -0.772 OA
HETATM   15  H   UNK N   1       7.880  -3.083   4.742  0.00  0.00     0.167 HD
ENDBRANCH  12  14
ENDBRANCH   7  12
TORSDOF 3
ENDMDL
MODEL 7
REMARK VINA RESULT:      -5.5      2.386      3.073
REMARK  3 active torsions:
REMARK  status: ('A' for Active; 'I' for Inactive)
REMARK    1  A    between atoms: S_2  and  C_5 
REMARK    2  A    between atoms: C_11  and  C_12 
REMARK    3  A    between atoms: C_12  and  O_14 
ROOT
HETATM    1  C   UNK N   1      11.235  -5.005   3.721  0.00  0.00     0.078 A 
HETATM    2  C   UNK N   1      11.546  -6.276   4.234  0.00  0.00     0.025 A 
HETATM    3  C   UNK N   1      10.935  -6.746   5.393  0.00  0.00     0.005 A 
HETATM    4  C   UNK N   1       9.997  -5.963   6.054  0.00  0.00     0.043 A 
HETATM    5  C   UNK N   1       9.667  -4.697   5.571  0.00  0.00     0.134 A 
HETATM    6  F   UNK N   1       8.751  -3.967   6.256  0.00  0.00    -0.205 F 
HETATM    7  C   UNK N   1      10.282  -4.185   4.402  0.00  0.00     0.097 A 
ENDROOT
BRANCH   1   8
HETATM    8  S   UNK N   1      12.005  -4.508   2.159  0.00  0.00     0.172 S 
HETATM    9  C   UNK N   1      11.122  -4.569   0.571  0.00  0.00     0.167 C 
HETATM   10  O   UNK N   1      13.280  -5.346   1.973  0.00  0.00    -0.223 OA
HETATM   11  O   UNK N   1      12.655  -3.126   2.335  0.00  0.00    -0.223 OA
ENDBRANCH   1   8
BRANCH   7  12
HETATM   12  C   UNK N   1       9.900  -2.815   3.927  0.00  0.00     0.180 C 
HETATM   13  O   UNK N   1       8.927  -2.647   3.209  0.00  0.00    -0.646 OA
BRANCH  12  14
HETATM   14  O   UNK N   1      10.641  -1.742   4.273  0.00  0.00    -0.772 OA
HETATM   15  H   UNK N   1      11.056  -1.681   5.145  0.00  0.00     0.167 HD
ENDBRANCH  12  14
ENDBRANCH   7  12
TORSDOF 3
ENDMDL
MODEL 8
REMARK VINA RESULT:      -5.5      4.883      5.972
REMARK  3 active torsions:
REMARK  status: ('A' for Active; 'I' for Inactive)
REMARK    1  A    between atoms: S_2  and  C_5 
REMARK    2  A    between atoms: C_11  and  C_12 
REMARK    3  A    between atoms: C_12  and  O_14 
ROOT
HETATM    1  C   UNK N   1      10.737  -9.366   5.579  0.00  0.00     0.078 A 
HETATM    2  C   UNK N   1      10.601  -9.913   4.292  0.00  0.00     0.025 A 
HETATM    3  C   UNK N   1      10.182 -11.229   4.117  0.00  0.00     0.005 A 
HETATM    4  C   UNK N   1       9.884 -12.019   5.220  0.00  0.00     0.043 A 
HETATM    5  C   UNK N   1      10.010 -11.506   6.511  0.00  0.00     0.134 A 
HETATM    6  F   UNK N   1       9.714 -12.319   7.556  0.00  0.00    -0.205 F 
HETATM    7  C   UNK N   1      10.446 -10.175   6.722  0.00  0.00     0.097 A 
ENDROOT
BRANCH   1   8
HETATM    8  S   UNK N   1      11.196  -7.619   5.716  0.00  0.00     0.172 S 
HETATM    9  C   UNK N   1      11.538  -6.583   4.261  0.00  0.00     0.167 C 
HETATM   10  O   UNK N   1      12.442  -7.527   6.611  0.00  0.00    -0.223 OA
HETATM   11  O   UNK N   1      10.192  -6.904   6.634  0.00  0.00    -0.223 OA
ENDBRANCH   1   8
BRANCH   7  12
HETATM   12  C   UNK N   1      10.574  -9.673   8.129  0.00  0.00     0.180 C 
HETATM   13  O   UNK N   1      11.509 -10.013   8.835  0.00  0.00    -0.646 OA
BRANCH  12  14
HETATM   14  O   UNK N   1       9.642  -8.845   8.645  0.00  0.00    -0.772 OA
HETATM   15  H   UNK N   1       8.704  -8.953   8.432  0.00  0.00     0.167 HD
ENDBRANCH  12  14
ENDBRANCH   7  12
TORSDOF 3
ENDMDL
MODEL 9
REMARK VINA RESULT:      -5.2      2.409      2.447
REMARK  3 active torsions:
REMARK  status: ('A' for Active; 'I' for Inactive)
REMARK    1  A    between atoms: S_2  and  C_5 
REMARK    2  A    between atoms: C_11  and  C_12 
REMARK    3  A    between atoms: C_12  and  O_14 
ROOT
HETATM    1  C   UNK N   1       9.406  -2.964   2.391  0.00  0.00     0.078 A 
HETATM    2  C   UNK N   1       9.219  -3.361   1.055  0.00  0.00     0.025 A 
HETATM    3  C   UNK N   1       8.833  -4.662   0.745  0.00  0.00     0.005 A 
HETATM    4  C   UNK N   1       8.620  -5.587   1.760  0.00  0.00     0.043 A 
HETATM    5  C   UNK N   1       8.798  -5.225   3.095  0.00  0.00     0.134 A 
HETATM    6  F   UNK N   1       8.584  -6.165   4.049  0.00  0.00    -0.205 F 
HETATM    7  C   UNK N   1       9.202  -3.912   3.441  0.00  0.00     0.097 A 
ENDROOT
BRANCH   1   8
HETATM    8  S   UNK N   1       9.816  -1.229   2.712  0.00  0.00     0.172 S 
HETATM    9  C   UNK N   1       9.715   0.053   1.426  0.00  0.00     0.167 C 
HETATM   10  O   UNK N   1      11.252  -1.176   3.258  0.00  0.00    -0.223 OA
HETATM   11  O   UNK N   1       9.067  -0.759   3.969  0.00  0.00    -0.223 OA
ENDBRANCH   1   8
BRANCH   7  12
HETATM   12  C   UNK N   1       9.389  -3.574   4.890  0.00  0.00     0.180 C 
HETATM   13  O   UNK N   1       8.451  -3.609   5.670  0.00  0.00    -0.646 OA
BRANCH  12  14
HETATM   14  O   UNK N   1      10.602  -3.207   5.355  0.00  0.00    -0.772 OA
HETATM   15  H   UNK N   1      11.390  -3.734   5.165  0.00  0.00     0.167 HD
ENDBRANCH  12  14
ENDBRANCH   7  12
TORSDOF 3
ENDMDL
