MODEL 1
REMARK VINA RESULT:      -8.3      0.000      0.000
REMARK  3 active torsions:
REMARK  status: ('A' for Active; 'I' for Inactive)
REMARK    1  A    between atoms: C_2  and  O_3 
REMARK    2  A    between atoms: C_2  and  C_4 
REMARK    3  A    between atoms: C_12  and  C_13 
ROOT
HETATM    1  C   UNK N   1      10.227  -4.365   4.701  0.00  0.00     0.103 A 
HETATM    2  C   UNK N   1      10.487  -5.703   4.319  0.00  0.00     0.135 A 
HETATM    3  F   UNK N   1      10.086  -6.744   5.091  0.00  0.00    -0.205 F 
HETATM    4  C   UNK N   1      11.187  -5.989   3.149  0.00  0.00     0.044 A 
HETATM    5  C   UNK N   1      11.634  -4.965   2.326  0.00  0.00     0.013 A 
HETATM    6  C   UNK N   1      11.384  -3.627   2.654  0.00  0.00    -0.022 A 
HETATM    7  C   UNK N   1      10.688  -3.311   3.845  0.00  0.00     0.055 A 
HETATM    8  N   UNK N   1      10.446  -1.937   4.136  0.00  0.00    -0.379 N 
HETATM    9  C   UNK N   1      11.285  -0.908   3.553  0.00  0.00     0.120 C 
HETATM   10  C   UNK N   1      11.369  -1.107   2.018  0.00  0.00     0.028 C 
HETATM   11  C   UNK N   1      12.491  -0.216   1.430  0.00  0.00     0.035 C 
HETATM   12  C   UNK N   1      13.667  -1.138   1.453  0.00  0.00    -0.029 C 
HETATM   13  C   UNK N   1      13.307  -2.402   1.591  0.00  0.00    -0.021 C 
HETATM   14  C   UNK N   1      11.828  -2.548   1.684  0.00  0.00     0.050 C 
HETATM   15  H   UNK N   1       9.677  -1.657   4.755  0.00  0.00     0.160 HD
ENDROOT
BRANCH   9  16
HETATM   16  C   UNK N   1      10.726   0.464   3.906  0.00  0.00    -0.035 A 
HETATM   17  C   UNK N   1       9.548   0.939   3.304  0.00  0.00     0.012 A 
HETATM   18  C   UNK N   1       9.049   2.204   3.637  0.00  0.00     0.043 A 
HETATM   19  C   UNK N   1       9.722   3.005   4.565  0.00  0.00     0.116 A 
HETATM   20  F   UNK N   1       9.237   4.231   4.884  0.00  0.00    -0.206 F 
HETATM   21  C   UNK N   1      10.896   2.544   5.163  0.00  0.00     0.043 A 
HETATM   22  C   UNK N   1      11.398   1.283   4.838  0.00  0.00     0.012 A 
ENDBRANCH   9  16
BRANCH   1  23
HETATM   23  C   UNK N   1       9.512  -4.121   6.002  0.00  0.00     0.181 C 
HETATM   24  O   UNK N   1       8.431  -3.552   6.033  0.00  0.00    -0.646 OA
BRANCH  23  25
HETATM   25  O   UNK N   1      10.079  -4.494   7.168  0.00  0.00    -0.772 OA
HETATM   26  H   UNK N   1      10.948  -4.158   7.432  0.00  0.00     0.167 HD
ENDBRANCH  23  25
ENDBRANCH   1  23
TORSDOF 3
ENDMDL
MODEL 2
REMARK VINA RESULT:      -8.1      2.127      2.642
REMARK  3 active torsions:
REMARK  status: ('A' for Active; 'I' for Inactive)
REMARK    1  A    between atoms: C_2  and  O_3 
REMARK    2  A    between atoms: C_2  and  C_4 
REMARK    3  A    between atoms: C_12  and  C_13 
ROOT
HETATM    1  C   UNK N   1      10.184  -4.971   5.157  0.00  0.00     0.103 A 
HETATM    2  C   UNK N   1      10.411  -6.303   5.584  0.00  0.00     0.135 A 
HETATM    3  F   UNK N   1       9.988  -6.731   6.800  0.00  0.00    -0.205 F 
HETATM    4  C   UNK N   1      11.099  -7.204   4.775  0.00  0.00     0.044 A 
HETATM    5  C   UNK N   1      11.567  -6.818   3.527  0.00  0.00     0.013 A 
HETATM    6  C   UNK N   1      11.350  -5.518   3.057  0.00  0.00    -0.022 A 
HETATM    7  C   UNK N   1      10.666  -4.580   3.865  0.00  0.00     0.055 A 
HETATM    8  N   UNK N   1      10.457  -3.270   3.342  0.00  0.00    -0.379 N 
HETATM    9  C   UNK N   1      11.318  -2.756   2.295  0.00  0.00     0.120 C 
HETATM   10  C   UNK N   1      11.391  -3.775   1.129  0.00  0.00     0.028 C 
HETATM   11  C   UNK N   1      12.532  -3.384   0.157  0.00  0.00     0.035 C 
HETATM   12  C   UNK N   1      13.686  -4.163   0.698  0.00  0.00    -0.029 C 
HETATM   13  C   UNK N   1      13.297  -5.130   1.511  0.00  0.00    -0.021 C 
HETATM   14  C   UNK N   1      11.816  -5.168   1.655  0.00  0.00     0.050 C 
HETATM   15  H   UNK N   1       9.698  -2.677   3.695  0.00  0.00     0.160 HD
ENDROOT
BRANCH   9  16
HETATM   16  C   UNK N   1      10.793  -1.407   1.823  0.00  0.00    -0.035 A 
HETATM   17  C   UNK N   1       9.539  -1.300   1.197  0.00  0.00     0.012 A 
HETATM   18  C   UNK N   1       9.072  -0.053   0.764  0.00  0.00     0.043 A 
HETATM   19  C   UNK N   1       9.852   1.093   0.948  0.00  0.00     0.116 A 
HETATM   20  F   UNK N   1       9.397   2.299   0.527  0.00  0.00    -0.206 F 
HETATM   21  C   UNK N   1      11.101   0.997   1.563  0.00  0.00     0.043 A 
HETATM   22  C   UNK N   1      11.572  -0.244   1.998  0.00  0.00     0.012 A 
ENDBRANCH   9  16
BRANCH   1  23
HETATM   23  C   UNK N   1       9.480  -4.031   6.097  0.00  0.00     0.181 C 
HETATM   24  O   UNK N   1       8.393  -3.550   5.815  0.00  0.00    -0.646 OA
BRANCH  23  25
HETATM   25  O   UNK N   1      10.063  -3.671   7.260  0.00  0.00    -0.772 OA
HETATM   26  H   UNK N   1       9.687  -3.938   8.112  0.00  0.00     0.167 HD
ENDBRANCH  23  25
ENDBRANCH   1  23
TORSDOF 3
ENDMDL
MODEL 3
REMARK VINA RESULT:      -7.7      3.852      4.520
REMARK  3 active torsions:
REMARK  status: ('A' for Active; 'I' for Inactive)
REMARK    1  A    between atoms: C_2  and  O_3 
REMARK    2  A    between atoms: C_2  and  C_4 
REMARK    3  A    between atoms: C_12  and  C_13 
ROOT
HETATM    1  C   UNK N   1       9.836  -4.901   4.198  0.00  0.00     0.103 A 
HETATM    2  C   UNK N   1      10.517  -5.732   5.121  0.00  0.00     0.135 A 
HETATM    3  F   UNK N   1      10.020  -5.953   6.365  0.00  0.00    -0.205 F 
HETATM    4  C   UNK N   1      11.732  -6.325   4.787  0.00  0.00     0.044 A 
HETATM    5  C   UNK N   1      12.295  -6.123   3.535  0.00  0.00     0.013 A 
HETATM    6  C   UNK N   1      11.648  -5.324   2.584  0.00  0.00    -0.022 A 
HETATM    7  C   UNK N   1      10.420  -4.699   2.905  0.00  0.00     0.055 A 
HETATM    8  N   UNK N   1       9.791  -3.903   1.904  0.00  0.00    -0.379 N 
HETATM    9  C   UNK N   1      10.573  -3.336   0.823  0.00  0.00     0.120 C 
HETATM   10  C   UNK N   1      11.418  -4.446   0.148  0.00  0.00     0.028 C 
HETATM   11  C   UNK N   1      12.473  -3.810  -0.790  0.00  0.00     0.035 C 
HETATM   12  C   UNK N   1      13.657  -3.679   0.112  0.00  0.00    -0.029 C 
HETATM   13  C   UNK N   1      13.545  -4.431   1.193  0.00  0.00    -0.021 C 
HETATM   14  C   UNK N   1      12.268  -5.196   1.204  0.00  0.00     0.050 C 
HETATM   15  H   UNK N   1       8.781  -3.724   1.932  0.00  0.00     0.160 HD
ENDROOT
BRANCH   9  16
HETATM   16  C   UNK N   1       9.644  -2.659  -0.176  0.00  0.00    -0.035 A 
HETATM   17  C   UNK N   1       9.567  -1.258  -0.254  0.00  0.00     0.012 A 
HETATM   18  C   UNK N   1       8.705  -0.650  -1.175  0.00  0.00     0.043 A 
HETATM   19  C   UNK N   1       7.912  -1.434  -2.020  0.00  0.00     0.116 A 
HETATM   20  F   UNK N   1       7.077  -0.843  -2.910  0.00  0.00    -0.206 F 
HETATM   21  C   UNK N   1       7.977  -2.826  -1.946  0.00  0.00     0.043 A 
HETATM   22  C   UNK N   1       8.836  -3.438  -1.031  0.00  0.00     0.012 A 
ENDBRANCH   9  16
BRANCH   1  23
HETATM   23  C   UNK N   1       8.554  -4.248   4.638  0.00  0.00     0.181 C 
HETATM   24  O   UNK N   1       7.539  -4.327   3.962  0.00  0.00    -0.646 OA
BRANCH  23  25
HETATM   25  O   UNK N   1       8.517  -3.524   5.777  0.00  0.00    -0.772 OA
HETATM   26  H   UNK N   1       8.802  -2.599   5.791  0.00  0.00     0.167 HD
ENDBRANCH  23  25
ENDBRANCH   1  23
TORSDOF 3
ENDMDL
MODEL 4
REMARK VINA RESULT:      -7.3      2.250      6.405
REMARK  3 active torsions:
REMARK  status: ('A' for Active; 'I' for Inactive)
REMARK    1  A    between atoms: C_2  and  O_3 
REMARK    2  A    between atoms: C_2  and  C_4 
REMARK    3  A    between atoms: C_12  and  C_13 
ROOT
HETATM    1  C   UNK N   1      11.680   0.133   3.006  0.00  0.00     0.103 A 
HETATM    2  C   UNK N   1      12.269   1.344   2.566  0.00  0.00     0.135 A 
HETATM    3  F   UNK N   1      11.870   2.541   3.066  0.00  0.00    -0.205 F 
HETATM    4  C   UNK N   1      13.260   1.341   1.587  0.00  0.00     0.044 A 
HETATM    5  C   UNK N   1      13.698   0.148   1.030  0.00  0.00     0.013 A 
HETATM    6  C   UNK N   1      13.157  -1.073   1.447  0.00  0.00    -0.022 A 
HETATM    7  C   UNK N   1      12.139  -1.096   2.430  0.00  0.00     0.055 A 
HETATM    8  N   UNK N   1      11.624  -2.362   2.833  0.00  0.00    -0.379 N 
HETATM    9  C   UNK N   1      11.737  -3.510   1.954  0.00  0.00     0.120 C 
HETATM   10  C   UNK N   1      13.207  -3.672   1.489  0.00  0.00     0.028 C 
HETATM   11  C   UNK N   1      13.284  -4.691   0.326  0.00  0.00     0.035 C 
HETATM   12  C   UNK N   1      13.170  -3.807  -0.873  0.00  0.00    -0.029 C 
HETATM   13  C   UNK N   1      13.409  -2.540  -0.582  0.00  0.00    -0.021 C 
HETATM   14  C   UNK N   1      13.723  -2.354   0.861  0.00  0.00     0.050 C 
HETATM   15  H   UNK N   1      11.171  -2.480   3.746  0.00  0.00     0.160 HD
ENDROOT
BRANCH   9  16
HETATM   16  C   UNK N   1      11.242  -4.755   2.678  0.00  0.00    -0.035 A 
HETATM   17  C   UNK N   1      12.044  -5.398   3.637  0.00  0.00     0.012 A 
HETATM   18  C   UNK N   1      11.577  -6.544   4.292  0.00  0.00     0.043 A 
HETATM   19  C   UNK N   1      10.312  -7.059   3.992  0.00  0.00     0.116 A 
HETATM   20  F   UNK N   1       9.862  -8.170   4.627  0.00  0.00    -0.206 F 
HETATM   21  C   UNK N   1       9.510  -6.431   3.038  0.00  0.00     0.043 A 
HETATM   22  C   UNK N   1       9.969  -5.287   2.383  0.00  0.00     0.012 A 
ENDBRANCH   9  16
BRANCH   1  23
HETATM   23  C   UNK N   1      10.579   0.207   4.028  0.00  0.00     0.181 C 
HETATM   24  O   UNK N   1      10.737   0.792   5.089  0.00  0.00    -0.646 OA
BRANCH  23  25
HETATM   25  O   UNK N   1       9.401  -0.414   3.804  0.00  0.00    -0.772 OA
HETATM   26  H   UNK N   1       8.577   0.089   3.730  0.00  0.00     0.167 HD
ENDBRANCH  23  25
ENDBRANCH   1  23
TORSDOF 3
ENDMDL
MODEL 5
REMARK VINA RESULT:      -6.9      6.323      9.373
REMARK  3 active torsions:
REMARK  status: ('A' for Active; 'I' for Inactive)
REMARK    1  A    between atoms: C_2  and  O_3 
REMARK    2  A    between atoms: C_2  and  C_4 
REMARK    3  A    between atoms: C_12  and  C_13 
ROOT
HETATM    1  C   UNK N   1      10.904 -13.042   3.548  0.00  0.00     0.103 A 
HETATM    2  C   UNK N   1      11.323 -14.346   3.908  0.00  0.00     0.135 A 
HETATM    3  F   UNK N   1      11.094 -15.406   3.092  0.00  0.00    -0.205 F 
HETATM    4  C   UNK N   1      11.961 -14.582   5.124  0.00  0.00     0.044 A 
HETATM    5  C   UNK N   1      12.209 -13.538   6.005  0.00  0.00     0.013 A 
HETATM    6  C   UNK N   1      11.829 -12.230   5.683  0.00  0.00    -0.022 A 
HETATM    7  C   UNK N   1      11.167 -11.968   4.460  0.00  0.00     0.055 A 
HETATM    8  N   UNK N   1      10.808 -10.619   4.168  0.00  0.00    -0.379 N 
HETATM    9  C   UNK N   1      10.647  -9.657   5.241  0.00  0.00     0.120 C 
HETATM   10  C   UNK N   1      11.901  -9.675   6.153  0.00  0.00     0.028 C 
HETATM   11  C   UNK N   1      11.616  -8.888   7.456  0.00  0.00     0.035 C 
HETATM   12  C   UNK N   1      11.132  -9.964   8.372  0.00  0.00    -0.029 C 
HETATM   13  C   UNK N   1      11.444 -11.171   7.932  0.00  0.00    -0.021 C 
HETATM   14  C   UNK N   1      12.191 -11.114   6.646  0.00  0.00     0.050 C 
HETATM   15  H   UNK N   1      10.661 -10.312   3.201  0.00  0.00     0.160 HD
ENDROOT
BRANCH   9  16
HETATM   16  C   UNK N   1      10.407  -8.274   4.651  0.00  0.00    -0.035 A 
HETATM   17  C   UNK N   1       9.104  -7.826   4.371  0.00  0.00     0.012 A 
HETATM   18  C   UNK N   1       8.899  -6.553   3.826  0.00  0.00     0.043 A 
HETATM   19  C   UNK N   1       9.990  -5.721   3.552  0.00  0.00     0.116 A 
HETATM   20  F   UNK N   1       9.788  -4.489   3.023  0.00  0.00    -0.206 F 
HETATM   21  C   UNK N   1      11.287  -6.159   3.821  0.00  0.00     0.043 A 
HETATM   22  C   UNK N   1      11.498  -7.427   4.367  0.00  0.00     0.012 A 
ENDBRANCH   9  16
BRANCH   1  23
HETATM   23  C   UNK N   1      10.175 -12.861   2.245  0.00  0.00     0.181 C 
HETATM   24  O   UNK N   1      10.662 -12.212   1.332  0.00  0.00    -0.646 OA
BRANCH  23  25
HETATM   25  O   UNK N   1       8.942 -13.385   2.079  0.00  0.00    -0.772 OA
HETATM   26  H   UNK N   1       8.615 -14.088   2.659  0.00  0.00     0.167 HD
ENDBRANCH  23  25
ENDBRANCH   1  23
TORSDOF 3
ENDMDL
MODEL 6
REMARK VINA RESULT:      -6.8      2.653      6.611
REMARK  3 active torsions:
REMARK  status: ('A' for Active; 'I' for Inactive)
REMARK    1  A    between atoms: C_2  and  O_3 
REMARK    2  A    between atoms: C_2  and  C_4 
REMARK    3  A    between atoms: C_12  and  C_13 
ROOT
HETATM    1  C   UNK N   1      11.438  -0.826   2.739  0.00  0.00     0.103 A 
HETATM    2  C   UNK N   1      11.605   0.330   1.938  0.00  0.00     0.135 A 
HETATM    3  F   UNK N   1      12.000   1.509   2.482  0.00  0.00    -0.205 F 
HETATM    4  C   UNK N   1      11.343   0.295   0.571  0.00  0.00     0.044 A 
HETATM    5  C   UNK N   1      10.922  -0.879  -0.038  0.00  0.00     0.013 A 
HETATM    6  C   UNK N   1      10.761  -2.051   0.711  0.00  0.00    -0.022 A 
HETATM    7  C   UNK N   1      11.007  -2.037   2.105  0.00  0.00     0.055 A 
HETATM    8  N   UNK N   1      10.840  -3.255   2.827  0.00  0.00    -0.379 N 
HETATM    9  C   UNK N   1       9.986  -4.303   2.304  0.00  0.00     0.120 C 
HETATM   10  C   UNK N   1      10.381  -4.619   0.838  0.00  0.00     0.028 C 
HETATM   11  C   UNK N   1       9.295  -5.504   0.178  0.00  0.00     0.035 C 
HETATM   12  C   UNK N   1       8.401  -4.486  -0.451  0.00  0.00    -0.029 C 
HETATM   13  C   UNK N   1       8.985  -3.305  -0.555  0.00  0.00    -0.021 C 
HETATM   14  C   UNK N   1      10.372  -3.326  -0.014  0.00  0.00     0.050 C 
HETATM   15  H   UNK N   1      11.321  -3.407   3.720  0.00  0.00     0.160 HD
ENDROOT
BRANCH   9  16
HETATM   16  C   UNK N   1      10.097  -5.538   3.188  0.00  0.00    -0.035 A 
HETATM   17  C   UNK N   1       8.950  -6.248   3.582  0.00  0.00     0.012 A 
HETATM   18  C   UNK N   1       9.068  -7.379   4.399  0.00  0.00     0.043 A 
HETATM   19  C   UNK N   1      10.328  -7.807   4.831  0.00  0.00     0.116 A 
HETATM   20  F   UNK N   1      10.439  -8.902   5.623  0.00  0.00    -0.206 F 
HETATM   21  C   UNK N   1      11.472  -7.105   4.450  0.00  0.00     0.043 A 
HETATM   22  C   UNK N   1      11.361  -5.977   3.634  0.00  0.00     0.012 A 
ENDBRANCH   9  16
BRANCH   1  23
HETATM   23  C   UNK N   1      11.686  -0.711   4.218  0.00  0.00     0.181 C 
HETATM   24  O   UNK N   1      11.060   0.081   4.906  0.00  0.00    -0.646 OA
BRANCH  23  25
HETATM   25  O   UNK N   1      12.643  -1.460   4.806  0.00  0.00    -0.772 OA
HETATM   26  H   UNK N   1      12.507  -1.846   5.684  0.00  0.00     0.167 HD
ENDBRANCH  23  25
ENDBRANCH   1  23
TORSDOF 3
ENDMDL
MODEL 7
REMARK VINA RESULT:      -6.8      2.202      6.293
REMARK  3 active torsions:
REMARK  status: ('A' for Active; 'I' for Inactive)
REMARK    1  A    between atoms: C_2  and  O_3 
REMARK    2  A    between atoms: C_2  and  C_4 
REMARK    3  A    between atoms: C_12  and  C_13 
ROOT
HETATM    1  C   UNK N   1      11.541   1.028   4.737  0.00  0.00     0.103 A 
HETATM    2  C   UNK N   1      11.680   2.310   4.151  0.00  0.00     0.135 A 
HETATM    3  F   UNK N   1      11.952   3.402   4.909  0.00  0.00    -0.205 F 
HETATM    4  C   UNK N   1      11.515   2.490   2.779  0.00  0.00     0.044 A 
HETATM    5  C   UNK N   1      11.222   1.412   1.956  0.00  0.00     0.013 A 
HETATM    6  C   UNK N   1      11.094   0.124   2.488  0.00  0.00    -0.022 A 
HETATM    7  C   UNK N   1      11.243  -0.082   3.881  0.00  0.00     0.055 A 
HETATM    8  N   UNK N   1      11.114  -1.411   4.379  0.00  0.00    -0.379 N 
HETATM    9  C   UNK N   1      10.375  -2.406   3.626  0.00  0.00     0.120 C 
HETATM   10  C   UNK N   1      10.890  -2.447   2.165  0.00  0.00     0.028 C 
HETATM   11  C   UNK N   1       9.919  -3.271   1.285  0.00  0.00     0.035 C 
HETATM   12  C   UNK N   1       8.999  -2.217   0.761  0.00  0.00    -0.029 C 
HETATM   13  C   UNK N   1       9.503  -1.003   0.898  0.00  0.00    -0.021 C 
HETATM   14  C   UNK N   1      10.848  -1.032   1.536  0.00  0.00     0.050 C 
HETATM   15  H   UNK N   1      11.542  -1.683   5.271  0.00  0.00     0.160 HD
ENDROOT
BRANCH   9  16
HETATM   16  C   UNK N   1      10.513  -3.763   4.303  0.00  0.00    -0.035 A 
HETATM   17  C   UNK N   1      11.446  -4.707   3.841  0.00  0.00     0.012 A 
HETATM   18  C   UNK N   1      11.559  -5.952   4.472  0.00  0.00     0.043 A 
HETATM   19  C   UNK N   1      10.741  -6.265   5.562  0.00  0.00     0.116 A 
HETATM   20  F   UNK N   1      10.852  -7.472   6.170  0.00  0.00    -0.206 F 
HETATM   21  C   UNK N   1       9.808  -5.336   6.025  0.00  0.00     0.043 A 
HETATM   22  C   UNK N   1       9.692  -4.093   5.402  0.00  0.00     0.012 A 
ENDBRANCH   9  16
BRANCH   1  23
HETATM   23  C   UNK N   1      11.679   0.908   6.230  0.00  0.00     0.181 C 
HETATM   24  O   UNK N   1      11.038   1.624   6.984  0.00  0.00    -0.646 OA
BRANCH  23  25
HETATM   25  O   UNK N   1      12.551   0.026   6.762  0.00  0.00    -0.772 OA
HETATM   26  H   UNK N   1      13.045  -0.590   6.201  0.00  0.00     0.167 HD
ENDBRANCH  23  25
ENDBRANCH   1  23
TORSDOF 3
ENDMDL
MODEL 8
REMARK VINA RESULT:      -6.4      3.162      6.520
REMARK  3 active torsions:
REMARK  status: ('A' for Active; 'I' for Inactive)
REMARK    1  A    between atoms: C_2  and  O_3 
REMARK    2  A    between atoms: C_2  and  C_4 
REMARK    3  A    between atoms: C_12  and  C_13 
ROOT
HETATM    1  C   UNK N   1       9.049   1.161   3.091  0.00  0.00     0.103 A 
HETATM    2  C   UNK N   1       9.663   2.179   3.862  0.00  0.00     0.135 A 
HETATM    3  F   UNK N   1       9.042   3.366   4.077  0.00  0.00    -0.205 F 
HETATM    4  C   UNK N   1      10.935   1.998   4.400  0.00  0.00     0.044 A 
HETATM    5  C   UNK N   1      11.623   0.810   4.201  0.00  0.00     0.013 A 
HETATM    6  C   UNK N   1      11.048  -0.230   3.462  0.00  0.00    -0.022 A 
HETATM    7  C   UNK N   1       9.763  -0.066   2.893  0.00  0.00     0.055 A 
HETATM    8  N   UNK N   1       9.211  -1.155   2.156  0.00  0.00    -0.379 N 
HETATM    9  C   UNK N   1      10.080  -2.160   1.577  0.00  0.00     0.120 C 
HETATM   10  C   UNK N   1      11.048  -2.703   2.659  0.00  0.00     0.028 C 
HETATM   11  C   UNK N   1      12.169  -3.539   1.993  0.00  0.00     0.035 C 
HETATM   12  C   UNK N   1      13.237  -2.517   1.779  0.00  0.00    -0.029 C 
HETATM   13  C   UNK N   1      13.042  -1.432   2.507  0.00  0.00    -0.021 C 
HETATM   14  C   UNK N   1      11.810  -1.537   3.336  0.00  0.00     0.050 C 
HETATM   15  H   UNK N   1       8.197  -1.243   2.029  0.00  0.00     0.160 HD
ENDROOT
BRANCH   9  16
HETATM   16  C   UNK N   1       9.236  -3.275   0.975  0.00  0.00    -0.035 A 
HETATM   17  C   UNK N   1       8.993  -3.330  -0.408  0.00  0.00     0.012 A 
HETATM   18  C   UNK N   1       8.212  -4.360  -0.946  0.00  0.00     0.043 A 
HETATM   19  C   UNK N   1       7.665  -5.338  -0.110  0.00  0.00     0.116 A 
HETATM   20  F   UNK N   1       6.908  -6.334  -0.634  0.00  0.00    -0.206 F 
HETATM   21  C   UNK N   1       7.896  -5.290   1.266  0.00  0.00     0.043 A 
HETATM   22  C   UNK N   1       8.675  -4.266   1.808  0.00  0.00     0.012 A 
ENDBRANCH   9  16
BRANCH   1  23
HETATM   23  C   UNK N   1       7.696   1.437   2.494  0.00  0.00     0.181 C 
HETATM   24  O   UNK N   1       7.506   2.408   1.778  0.00  0.00    -0.646 OA
BRANCH  23  25
HETATM   25  O   UNK N   1       6.652   0.629   2.776  0.00  0.00    -0.772 OA
HETATM   26  H   UNK N   1       5.758   0.842   2.472  0.00  0.00     0.167 HD
ENDBRANCH  23  25
ENDBRANCH   1  23
TORSDOF 3
ENDMDL
MODEL 9
REMARK VINA RESULT:      -6.4      4.585      6.447
REMARK  3 active torsions:
REMARK  status: ('A' for Active; 'I' for Inactive)
REMARK    1  A    between atoms: C_2  and  O_3 
REMARK    2  A    between atoms: C_2  and  C_4 
REMARK    3  A    between atoms: C_12  and  C_13 
ROOT
HETATM    1  C   UNK N   1       8.868  -5.598  -1.670  0.00  0.00     0.103 A 
HETATM    2  C   UNK N   1       8.977  -5.424  -3.071  0.00  0.00     0.135 A 
HETATM    3  F   UNK N   1       8.025  -5.902  -3.913  0.00  0.00    -0.205 F 
HETATM    4  C   UNK N   1      10.079  -4.779  -3.628  0.00  0.00     0.044 A 
HETATM    5  C   UNK N   1      11.090  -4.282  -2.817  0.00  0.00     0.013 A 
HETATM    6  C   UNK N   1      11.016  -4.415  -1.426  0.00  0.00    -0.022 A 
HETATM    7  C   UNK N   1       9.913  -5.079  -0.837  0.00  0.00     0.055 A 
HETATM    8  N   UNK N   1       9.873  -5.183   0.584  0.00  0.00    -0.379 N 
HETATM    9  C   UNK N   1      11.095  -5.092   1.358  0.00  0.00     0.120 C 
HETATM   10  C   UNK N   1      11.880  -3.817   0.952  0.00  0.00     0.028 C 
HETATM   11  C   UNK N   1      13.312  -3.869   1.539  0.00  0.00     0.035 C 
HETATM   12  C   UNK N   1      14.083  -4.503   0.428  0.00  0.00    -0.029 C 
HETATM   13  C   UNK N   1      13.430  -4.459  -0.720  0.00  0.00    -0.021 C 
HETATM   14  C   UNK N   1      12.109  -3.788  -0.579  0.00  0.00     0.050 C 
HETATM   15  H   UNK N   1       8.983  -5.319   1.077  0.00  0.00     0.160 HD
ENDROOT
BRANCH   9  16
HETATM   16  C   UNK N   1      10.758  -5.088   2.843  0.00  0.00    -0.035 A 
HETATM   17  C   UNK N   1      11.237  -6.099   3.694  0.00  0.00     0.012 A 
HETATM   18  C   UNK N   1      10.915  -6.084   5.056  0.00  0.00     0.043 A 
HETATM   19  C   UNK N   1      10.110  -5.066   5.578  0.00  0.00     0.116 A 
HETATM   20  F   UNK N   1       9.799  -5.055   6.898  0.00  0.00    -0.206 F 
HETATM   21  C   UNK N   1       9.625  -4.060   4.740  0.00  0.00     0.043 A 
HETATM   22  C   UNK N   1       9.944  -4.069   3.381  0.00  0.00     0.012 A 
ENDBRANCH   9  16
BRANCH   1  23
HETATM   23  C   UNK N   1       7.680  -6.348  -1.135  0.00  0.00     0.181 C 
HETATM   24  O   UNK N   1       7.472  -7.511  -1.447  0.00  0.00    -0.646 OA
BRANCH  23  25
HETATM   25  O   UNK N   1       6.794  -5.730  -0.325  0.00  0.00    -0.772 OA
HETATM   26  H   UNK N   1       5.939  -5.423  -0.660  0.00  0.00     0.167 HD
ENDBRANCH  23  25
ENDBRANCH   1  23
TORSDOF 3
ENDMDL
