MODEL 1
REMARK VINA RESULT:      -7.1      0.000      0.000
REMARK  4 active torsions:
REMARK  status: ('A' for Active; 'I' for Inactive)
REMARK    1  A    between atoms: C_2  and  O_3 
REMARK    2  A    between atoms: C_2  and  C_4 
REMARK    3  A    between atoms: C_6  and  C_7 
REMARK    4  A    between atoms: C_7  and  O_9 
ROOT
HETATM    1  C   UNK N   1       8.544  -5.042   4.409  0.00  0.00     0.227 C 
HETATM    2  C   UNK N   1       9.341  -6.204   5.013  0.00  0.00     0.063 C 
HETATM    3  C   UNK N   1      10.862  -5.961   4.845  0.00  0.00     0.122 C 
HETATM    4  C   UNK N   1      11.181  -5.530   3.419  0.00  0.00    -0.007 A 
HETATM    5  C   UNK N   1      12.493  -5.583   2.915  0.00  0.00     0.053 A 
HETATM    6  C   UNK N   1      12.758  -5.197   1.596  0.00  0.00     0.117 A 
HETATM    7  F   UNK N   1      14.022  -5.267   1.111  0.00  0.00    -0.206 F 
HETATM    8  C   UNK N   1      11.722  -4.742   0.776  0.00  0.00     0.045 A 
HETATM    9  C   UNK N   1      10.421  -4.658   1.275  0.00  0.00     0.040 A 
HETATM   10  C   UNK N   1      10.144  -5.037   2.592  0.00  0.00     0.077 A 
HETATM   11  O   UNK N   1       8.877  -4.913   3.066  0.00  0.00    -0.335 OA
ENDROOT
BRANCH   1  12
HETATM   12  C   UNK N   1       8.800  -3.765   5.173  0.00  0.00     0.170 C 
HETATM   13  O   UNK N   1       8.695  -3.758   6.391  0.00  0.00    -0.648 OA
BRANCH  12  14
HETATM   14  O   UNK N   1       9.163  -2.639   4.525  0.00  0.00    -0.774 OA
HETATM   15  H   UNK N   1       8.563  -2.212   3.896  0.00  0.00     0.167 HD
ENDBRANCH  12  14
ENDBRANCH   1  12
BRANCH   3  16
HETATM   16  C   UNK N   1      11.606  -7.211   5.249  0.00  0.00     0.148 C 
HETATM   17  O   UNK N   1      11.410  -8.266   4.662  0.00  0.00    -0.649 OA
BRANCH  16  18
HETATM   18  O   UNK N   1      12.494  -7.159   6.265  0.00  0.00    -0.776 OA
HETATM   19  H   UNK N   1      12.817  -7.966   6.691  0.00  0.00     0.167 HD
ENDBRANCH  16  18
ENDBRANCH   3  16
TORSDOF 4
ENDMDL
MODEL 2
REMARK VINA RESULT:      -6.4      2.895      3.454
REMARK  4 active torsions:
REMARK  status: ('A' for Active; 'I' for Inactive)
REMARK    1  A    between atoms: C_2  and  O_3 
REMARK    2  A    between atoms: C_2  and  C_4 
REMARK    3  A    between atoms: C_6  and  C_7 
REMARK    4  A    between atoms: C_7  and  O_9 
ROOT
HETATM    1  C   UNK N   1       9.053  -4.363   4.827  0.00  0.00     0.227 C 
HETATM    2  C   UNK N   1       9.851  -5.118   3.760  0.00  0.00     0.063 C 
HETATM    3  C   UNK N   1      11.271  -4.515   3.618  0.00  0.00     0.122 C 
HETATM    4  C   UNK N   1      11.201  -2.997   3.528  0.00  0.00    -0.007 A 
HETATM    5  C   UNK N   1      12.289  -2.241   3.054  0.00  0.00     0.053 A 
HETATM    6  C   UNK N   1      12.194  -0.847   2.965  0.00  0.00     0.117 A 
HETATM    7  F   UNK N   1      13.240  -0.127   2.491  0.00  0.00    -0.206 F 
HETATM    8  C   UNK N   1      11.022  -0.197   3.359  0.00  0.00     0.045 A 
HETATM    9  C   UNK N   1       9.946  -0.934   3.858  0.00  0.00     0.040 A 
HETATM   10  C   UNK N   1      10.030  -2.327   3.956  0.00  0.00     0.077 A 
HETATM   11  O   UNK N   1       8.985  -3.020   4.477  0.00  0.00    -0.335 OA
ENDROOT
BRANCH   1  12
HETATM   12  C   UNK N   1       9.671  -4.553   6.192  0.00  0.00     0.170 C 
HETATM   13  O   UNK N   1       9.773  -5.679   6.657  0.00  0.00    -0.648 OA
BRANCH  12  14
HETATM   14  O   UNK N   1      10.131  -3.494   6.891  0.00  0.00    -0.774 OA
HETATM   15  H   UNK N   1       9.529  -2.946   7.415  0.00  0.00     0.167 HD
ENDBRANCH  12  14
ENDBRANCH   1  12
BRANCH   3  16
HETATM   16  C   UNK N   1      11.950  -5.134   2.420  0.00  0.00     0.148 C 
HETATM   17  O   UNK N   1      11.311  -5.389   1.410  0.00  0.00    -0.649 OA
BRANCH  16  18
HETATM   18  O   UNK N   1      13.272  -5.404   2.469  0.00  0.00    -0.776 OA
HETATM   19  H   UNK N   1      13.611  -6.167   2.957  0.00  0.00     0.167 HD
ENDBRANCH  16  18
ENDBRANCH   3  16
TORSDOF 4
ENDMDL
MODEL 3
REMARK VINA RESULT:      -6.4      1.427      3.785
REMARK  4 active torsions:
REMARK  status: ('A' for Active; 'I' for Inactive)
REMARK    1  A    between atoms: C_2  and  O_3 
REMARK    2  A    between atoms: C_2  and  C_4 
REMARK    3  A    between atoms: C_6  and  C_7 
REMARK    4  A    between atoms: C_7  and  O_9 
ROOT
HETATM    1  C   UNK N   1      11.309  -6.707   5.577  0.00  0.00     0.227 C 
HETATM    2  C   UNK N   1      10.162  -5.700   5.711  0.00  0.00     0.063 C 
HETATM    3  C   UNK N   1       9.427  -5.534   4.357  0.00  0.00     0.122 C 
HETATM    4  C   UNK N   1      10.428  -5.342   3.225  0.00  0.00    -0.007 A 
HETATM    5  C   UNK N   1      10.031  -4.831   1.976  0.00  0.00     0.053 A 
HETATM    6  C   UNK N   1      10.973  -4.649   0.957  0.00  0.00     0.117 A 
HETATM    7  F   UNK N   1      10.587  -4.139  -0.238  0.00  0.00    -0.206 F 
HETATM    8  C   UNK N   1      12.312  -4.988   1.169  0.00  0.00     0.045 A 
HETATM    9  C   UNK N   1      12.712  -5.523   2.395  0.00  0.00     0.040 A 
HETATM   10  C   UNK N   1      11.780  -5.714   3.420  0.00  0.00     0.077 A 
HETATM   11  O   UNK N   1      12.185  -6.269   4.592  0.00  0.00    -0.335 OA
ENDROOT
BRANCH   1  12
HETATM   12  C   UNK N   1      10.775  -8.088   5.275  0.00  0.00     0.170 C 
HETATM   13  O   UNK N   1      11.512  -8.923   4.771  0.00  0.00    -0.648 OA
BRANCH  12  14
HETATM   14  O   UNK N   1       9.500  -8.412   5.576  0.00  0.00    -0.774 OA
HETATM   15  H   UNK N   1       9.028  -9.091   5.073  0.00  0.00     0.167 HD
ENDBRANCH  12  14
ENDBRANCH   1  12
BRANCH   3  16
HETATM   16  C   UNK N   1       8.452  -4.386   4.466  0.00  0.00     0.148 C 
HETATM   17  O   UNK N   1       7.459  -4.348   3.754  0.00  0.00    -0.649 OA
BRANCH  16  18
HETATM   18  O   UNK N   1       8.682  -3.398   5.358  0.00  0.00    -0.776 OA
HETATM   19  H   UNK N   1       9.288  -3.525   6.101  0.00  0.00     0.167 HD
ENDBRANCH  16  18
ENDBRANCH   3  16
TORSDOF 4
ENDMDL
MODEL 4
REMARK VINA RESULT:      -6.1      2.400      3.204
REMARK  4 active torsions:
REMARK  status: ('A' for Active; 'I' for Inactive)
REMARK    1  A    between atoms: C_2  and  O_3 
REMARK    2  A    between atoms: C_2  and  C_4 
REMARK    3  A    between atoms: C_6  and  C_7 
REMARK    4  A    between atoms: C_7  and  O_9 
ROOT
HETATM    1  C   UNK N   1       9.830  -5.644   5.252  0.00  0.00     0.227 C 
HETATM    2  C   UNK N   1      11.223  -5.440   4.646  0.00  0.00     0.063 C 
HETATM    3  C   UNK N   1      11.176  -4.365   3.533  0.00  0.00     0.122 C 
HETATM    4  C   UNK N   1      10.009  -4.623   2.589  0.00  0.00    -0.007 A 
HETATM    5  C   UNK N   1       9.946  -4.016   1.321  0.00  0.00     0.053 A 
HETATM    6  C   UNK N   1       8.871  -4.282   0.465  0.00  0.00     0.117 A 
HETATM    7  F   UNK N   1       8.826  -3.708  -0.763  0.00  0.00    -0.206 F 
HETATM    8  C   UNK N   1       7.846  -5.140   0.870  0.00  0.00     0.045 A 
HETATM    9  C   UNK N   1       7.884  -5.725   2.137  0.00  0.00     0.040 A 
HETATM   10  C   UNK N   1       8.950  -5.465   3.004  0.00  0.00     0.077 A 
HETATM   11  O   UNK N   1       8.948  -6.016   4.245  0.00  0.00    -0.335 OA
ENDROOT
BRANCH   1  12
HETATM   12  C   UNK N   1       9.368  -4.395   5.964  0.00  0.00     0.170 C 
HETATM   13  O   UNK N   1       8.265  -3.931   5.717  0.00  0.00    -0.648 OA
BRANCH  12  14
HETATM   14  O   UNK N   1      10.155  -3.800   6.886  0.00  0.00    -0.774 OA
HETATM   15  H   UNK N   1      10.982  -4.213   7.173  0.00  0.00     0.167 HD
ENDBRANCH  12  14
ENDBRANCH   1  12
BRANCH   3  16
HETATM   16  C   UNK N   1      12.505  -4.344   2.816  0.00  0.00     0.148 C 
HETATM   17  O   UNK N   1      13.034  -5.388   2.463  0.00  0.00    -0.649 OA
BRANCH  16  18
HETATM   18  O   UNK N   1      13.107  -3.162   2.562  0.00  0.00    -0.776 OA
HETATM   19  H   UNK N   1      14.008  -2.984   2.864  0.00  0.00     0.167 HD
ENDBRANCH  16  18
ENDBRANCH   3  16
TORSDOF 4
ENDMDL
MODEL 5
REMARK VINA RESULT:      -6.0      3.302      5.099
REMARK  4 active torsions:
REMARK  status: ('A' for Active; 'I' for Inactive)
REMARK    1  A    between atoms: C_2  and  O_3 
REMARK    2  A    between atoms: C_2  and  C_4 
REMARK    3  A    between atoms: C_6  and  C_7 
REMARK    4  A    between atoms: C_7  and  O_9 
ROOT
HETATM    1  C   UNK N   1      12.318  -3.354   0.986  0.00  0.00     0.227 C 
HETATM    2  C   UNK N   1      12.080  -2.181   1.944  0.00  0.00     0.063 C 
HETATM    3  C   UNK N   1      11.968  -2.689   3.403  0.00  0.00     0.122 C 
HETATM    4  C   UNK N   1      11.032  -3.887   3.482  0.00  0.00    -0.007 A 
HETATM    5  C   UNK N   1      10.491  -4.314   4.709  0.00  0.00     0.053 A 
HETATM    6  C   UNK N   1       9.620  -5.408   4.753  0.00  0.00     0.117 A 
HETATM    7  F   UNK N   1       9.088  -5.803   5.936  0.00  0.00    -0.206 F 
HETATM    8  C   UNK N   1       9.293  -6.093   3.580  0.00  0.00     0.045 A 
HETATM    9  C   UNK N   1       9.846  -5.697   2.361  0.00  0.00     0.040 A 
HETATM   10  C   UNK N   1      10.721  -4.607   2.304  0.00  0.00     0.077 A 
HETATM   11  O   UNK N   1      11.275  -4.262   1.113  0.00  0.00    -0.335 OA
ENDROOT
BRANCH   1  12
HETATM   12  C   UNK N   1      13.656  -4.000   1.256  0.00  0.00     0.170 C 
HETATM   13  O   UNK N   1      13.734  -5.218   1.331  0.00  0.00    -0.648 OA
BRANCH  12  14
HETATM   14  O   UNK N   1      14.768  -3.247   1.392  0.00  0.00    -0.774 OA
HETATM   15  H   UNK N   1      14.748  -2.419   1.892  0.00  0.00     0.167 HD
ENDBRANCH  12  14
ENDBRANCH   1  12
BRANCH   3  16
HETATM   16  C   UNK N   1      11.521  -1.548   4.286  0.00  0.00     0.148 C 
HETATM   17  O   UNK N   1      10.478  -0.956   4.052  0.00  0.00    -0.649 OA
BRANCH  16  18
HETATM   18  O   UNK N   1      12.281  -1.186   5.342  0.00  0.00    -0.776 OA
HETATM   19  H   UNK N   1      12.893  -1.810   5.757  0.00  0.00     0.167 HD
ENDBRANCH  16  18
ENDBRANCH   3  16
TORSDOF 4
ENDMDL
MODEL 6
REMARK VINA RESULT:      -5.9      2.233      3.692
REMARK  4 active torsions:
REMARK  status: ('A' for Active; 'I' for Inactive)
REMARK    1  A    between atoms: C_2  and  O_3 
REMARK    2  A    between atoms: C_2  and  C_4 
REMARK    3  A    between atoms: C_6  and  C_7 
REMARK    4  A    between atoms: C_7  and  O_9 
ROOT
HETATM    1  C   UNK N   1       9.978  -4.890   4.347  0.00  0.00     0.227 C 
HETATM    2  C   UNK N   1      10.356  -3.507   4.887  0.00  0.00     0.063 C 
HETATM    3  C   UNK N   1      10.759  -2.564   3.726  0.00  0.00     0.122 C 
HETATM    4  C   UNK N   1      11.730  -3.262   2.783  0.00  0.00    -0.007 A 
HETATM    5  C   UNK N   1      12.506  -2.534   1.862  0.00  0.00     0.053 A 
HETATM    6  C   UNK N   1      13.403  -3.197   1.017  0.00  0.00     0.117 A 
HETATM    7  F   UNK N   1      14.161  -2.488   0.145  0.00  0.00    -0.206 F 
HETATM    8  C   UNK N   1      13.524  -4.588   1.072  0.00  0.00     0.045 A 
HETATM    9  C   UNK N   1      12.738  -5.323   1.962  0.00  0.00     0.040 A 
HETATM   10  C   UNK N   1      11.834  -4.673   2.809  0.00  0.00     0.077 A 
HETATM   11  O   UNK N   1      11.054  -5.411   3.641  0.00  0.00    -0.335 OA
ENDROOT
BRANCH   1  12
HETATM   12  C   UNK N   1       8.736  -4.808   3.491  0.00  0.00     0.170 C 
HETATM   13  O   UNK N   1       7.749  -4.224   3.914  0.00  0.00    -0.648 OA
BRANCH  12  14
HETATM   14  O   UNK N   1       8.714  -5.356   2.259  0.00  0.00    -0.774 OA
HETATM   15  H   UNK N   1       7.985  -5.177   1.648  0.00  0.00     0.167 HD
ENDBRANCH  12  14
ENDBRANCH   1  12
BRANCH   3  16
HETATM   16  C   UNK N   1      11.329  -1.290   4.303  0.00  0.00     0.148 C 
HETATM   17  O   UNK N   1      10.736  -0.229   4.165  0.00  0.00    -0.649 OA
BRANCH  16  18
HETATM   18  O   UNK N   1      12.498  -1.329   4.976  0.00  0.00    -0.776 OA
HETATM   19  H   UNK N   1      13.156  -0.626   4.879  0.00  0.00     0.167 HD
ENDBRANCH  16  18
ENDBRANCH   3  16
TORSDOF 4
ENDMDL
MODEL 7
REMARK VINA RESULT:      -5.8      4.963      6.701
REMARK  4 active torsions:
REMARK  status: ('A' for Active; 'I' for Inactive)
REMARK    1  A    between atoms: C_2  and  O_3 
REMARK    2  A    between atoms: C_2  and  C_4 
REMARK    3  A    between atoms: C_6  and  C_7 
REMARK    4  A    between atoms: C_7  and  O_9 
ROOT
HETATM    1  C   UNK N   1       9.260 -12.594   5.626  0.00  0.00     0.227 C 
HETATM    2  C   UNK N   1      10.694 -13.037   5.936  0.00  0.00     0.063 C 
HETATM    3  C   UNK N   1      11.430 -11.951   6.760  0.00  0.00     0.122 C 
HETATM    4  C   UNK N   1      11.217 -10.575   6.142  0.00  0.00    -0.007 A 
HETATM    5  C   UNK N   1      12.041  -9.486   6.479  0.00  0.00     0.053 A 
HETATM    6  C   UNK N   1      11.835  -8.236   5.885  0.00  0.00     0.117 A 
HETATM    7  F   UNK N   1      12.644  -7.195   6.202  0.00  0.00    -0.206 F 
HETATM    8  C   UNK N   1      10.800  -8.057   4.964  0.00  0.00     0.045 A 
HETATM    9  C   UNK N   1       9.958  -9.124   4.643  0.00  0.00     0.040 A 
HETATM   10  C   UNK N   1      10.151 -10.378   5.232  0.00  0.00     0.077 A 
HETATM   11  O   UNK N   1       9.298 -11.391   4.932  0.00  0.00    -0.335 OA
ENDROOT
BRANCH   1  12
HETATM   12  C   UNK N   1       8.449 -12.481   6.895  0.00  0.00     0.170 C 
HETATM   13  O   UNK N   1       7.918 -13.478   7.363  0.00  0.00    -0.648 OA
BRANCH  12  14
HETATM   14  O   UNK N   1       8.324 -11.295   7.526  0.00  0.00    -0.774 OA
HETATM   15  H   UNK N   1       9.049 -10.654   7.527  0.00  0.00     0.167 HD
ENDBRANCH  12  14
ENDBRANCH   1  12
BRANCH   3  16
HETATM   16  C   UNK N   1      12.891 -12.318   6.861  0.00  0.00     0.148 C 
HETATM   17  O   UNK N   1      13.388 -12.585   7.946  0.00  0.00    -0.649 OA
BRANCH  16  18
HETATM   18  O   UNK N   1      13.649 -12.353   5.744  0.00  0.00    -0.776 OA
HETATM   19  H   UNK N   1      14.554 -12.693   5.764  0.00  0.00     0.167 HD
ENDBRANCH  16  18
ENDBRANCH   3  16
TORSDOF 4
ENDMDL
MODEL 8
REMARK VINA RESULT:      -5.8      5.288      7.318
REMARK  4 active torsions:
REMARK  status: ('A' for Active; 'I' for Inactive)
REMARK    1  A    between atoms: C_2  and  O_3 
REMARK    2  A    between atoms: C_2  and  C_4 
REMARK    3  A    between atoms: C_6  and  C_7 
REMARK    4  A    between atoms: C_7  and  O_9 
ROOT
HETATM    1  C   UNK N   1      10.901  -9.304   5.146  0.00  0.00     0.227 C 
HETATM    2  C   UNK N   1       9.688 -10.233   5.272  0.00  0.00     0.063 C 
HETATM    3  C   UNK N   1       9.940 -11.308   6.357  0.00  0.00     0.122 C 
HETATM    4  C   UNK N   1      11.316 -11.937   6.178  0.00  0.00    -0.007 A 
HETATM    5  C   UNK N   1      11.650 -13.155   6.798  0.00  0.00     0.053 A 
HETATM    6  C   UNK N   1      12.916 -13.721   6.604  0.00  0.00     0.117 A 
HETATM    7  F   UNK N   1      13.225 -14.904   7.190  0.00  0.00    -0.206 F 
HETATM    8  C   UNK N   1      13.860 -13.072   5.805  0.00  0.00     0.045 A 
HETATM    9  C   UNK N   1      13.550 -11.849   5.208  0.00  0.00     0.040 A 
HETATM   10  C   UNK N   1      12.290 -11.271   5.397  0.00  0.00     0.077 A 
HETATM   11  O   UNK N   1      12.022 -10.063   4.835  0.00  0.00    -0.335 OA
ENDROOT
BRANCH   1  12
HETATM   12  C   UNK N   1      11.099  -8.508   6.414  0.00  0.00     0.170 C 
HETATM   13  O   UNK N   1      12.230  -8.210   6.769  0.00  0.00    -0.648 OA
BRANCH  12  14
HETATM   14  O   UNK N   1      10.038  -8.107   7.145  0.00  0.00    -0.774 OA
HETATM   15  H   UNK N   1       9.191  -8.572   7.088  0.00  0.00     0.167 HD
ENDBRANCH  12  14
ENDBRANCH   1  12
BRANCH   3  16
HETATM   16  C   UNK N   1       8.828 -12.328   6.306  0.00  0.00     0.148 C 
HETATM   17  O   UNK N   1       8.163 -12.569   7.303  0.00  0.00    -0.649 OA
BRANCH  16  18
HETATM   18  O   UNK N   1       8.569 -12.974   5.149  0.00  0.00    -0.776 OA
HETATM   19  H   UNK N   1       8.982 -12.699   4.318  0.00  0.00     0.167 HD
ENDBRANCH  16  18
ENDBRANCH   3  16
TORSDOF 4
ENDMDL
MODEL 9
REMARK VINA RESULT:      -5.5      2.681      4.329
REMARK  4 active torsions:
REMARK  status: ('A' for Active; 'I' for Inactive)
REMARK    1  A    between atoms: C_2  and  O_3 
REMARK    2  A    between atoms: C_2  and  C_4 
REMARK    3  A    between atoms: C_6  and  C_7 
REMARK    4  A    between atoms: C_7  and  O_9 
ROOT
HETATM    1  C   UNK N   1      11.409  -3.324   3.252  0.00  0.00     0.227 C 
HETATM    2  C   UNK N   1      10.523  -3.717   2.065  0.00  0.00     0.063 C 
HETATM    3  C   UNK N   1       9.422  -4.709   2.516  0.00  0.00     0.122 C 
HETATM    4  C   UNK N   1      10.020  -5.820   3.369  0.00  0.00    -0.007 A 
HETATM    5  C   UNK N   1       9.319  -7.015   3.611  0.00  0.00     0.053 A 
HETATM    6  C   UNK N   1       9.897  -8.028   4.385  0.00  0.00     0.117 A 
HETATM    7  F   UNK N   1       9.222  -9.184   4.600  0.00  0.00    -0.206 F 
HETATM    8  C   UNK N   1      11.169  -7.852   4.935  0.00  0.00     0.045 A 
HETATM    9  C   UNK N   1      11.863  -6.659   4.725  0.00  0.00     0.040 A 
HETATM   10  C   UNK N   1      11.295  -5.638   3.957  0.00  0.00     0.077 A 
HETATM   11  O   UNK N   1      11.973  -4.472   3.796  0.00  0.00    -0.335 OA
ENDROOT
BRANCH   1  12
HETATM   12  C   UNK N   1      10.615  -2.552   4.279  0.00  0.00     0.170 C 
HETATM   13  O   UNK N   1      10.050  -1.518   3.953  0.00  0.00    -0.648 OA
BRANCH  12  14
HETATM   14  O   UNK N   1      10.507  -3.006   5.545  0.00  0.00    -0.774 OA
HETATM   15  H   UNK N   1      11.038  -3.754   5.852  0.00  0.00     0.167 HD
ENDBRANCH  12  14
ENDBRANCH   1  12
BRANCH   3  16
HETATM   16  C   UNK N   1       8.709  -5.239   1.295  0.00  0.00     0.148 C 
HETATM   17  O   UNK N   1       7.488  -5.308   1.273  0.00  0.00    -0.649 OA
BRANCH  16  18
HETATM   18  O   UNK N   1       9.428  -5.636   0.223  0.00  0.00    -0.776 OA
HETATM   19  H   UNK N   1      10.302  -6.037   0.326  0.00  0.00     0.167 HD
ENDBRANCH  16  18
ENDBRANCH   3  16
TORSDOF 4
ENDMDL
