MODEL 1
REMARK VINA RESULT:      -7.1      0.000      0.000
REMARK  3 active torsions:
REMARK  status: ('A' for Active; 'I' for Inactive)
REMARK    1  A    between atoms: C_5  and  C_6 
REMARK    2  A    between atoms: C_14  and  C_15 
REMARK    3  A    between atoms: C_15  and  O_17 
ROOT
HETATM    1  C   UNK N   1      11.037  -1.522   3.814  0.00  0.00     0.051 C 
HETATM    2  C   UNK N   1      11.258  -3.001   3.756  0.00  0.00    -0.020 A 
HETATM    3  C   UNK N   1      12.141  -3.649   2.916  0.00  0.00     0.150 A 
HETATM    4  O   UNK N   1      12.110  -4.939   3.162  0.00  0.00    -0.320 OA
HETATM    5  C   UNK N   1      11.225  -5.184   4.106  0.00  0.00     0.105 A 
HETATM    6  C   UNK N   1      10.665  -3.981   4.536  0.00  0.00     0.080 A 
ENDROOT
BRANCH   5   7
HETATM    7  C   UNK N   1      10.924  -6.554   4.571  0.00  0.00     0.040 A 
HETATM    8  C   UNK N   1      11.684  -7.108   5.614  0.00  0.00     0.059 A 
HETATM    9  C   UNK N   1      11.413  -8.401   6.074  0.00  0.00     0.117 A 
HETATM   10  F   UNK N   1      12.128  -8.916   7.104  0.00  0.00    -0.206 F 
HETATM   11  C   UNK N   1      10.405  -9.161   5.475  0.00  0.00     0.045 A 
HETATM   12  C   UNK N   1       9.665  -8.630   4.416  0.00  0.00     0.046 A 
HETATM   13  C   UNK N   1       9.916  -7.331   3.965  0.00  0.00     0.129 A 
HETATM   14  F   UNK N   1       9.211  -6.855   2.907  0.00  0.00    -0.205 F 
ENDBRANCH   5   7
BRANCH   6  15
HETATM   15  C   UNK N   1       9.705  -3.758   5.648  0.00  0.00     0.179 C 
HETATM   16  O   UNK N   1       8.522  -3.561   5.410  0.00  0.00    -0.646 OA
BRANCH  15  17
HETATM   17  O   UNK N   1      10.115  -3.838   6.929  0.00  0.00    -0.773 OA
HETATM   18  H   UNK N   1       9.481  -3.804   7.659  0.00  0.00     0.167 HD
ENDBRANCH  15  17
ENDBRANCH   6  15
TORSDOF 3
ENDMDL
MODEL 2
REMARK VINA RESULT:      -6.4      2.700      4.551
REMARK  3 active torsions:
REMARK  status: ('A' for Active; 'I' for Inactive)
REMARK    1  A    between atoms: C_5  and  C_6 
REMARK    2  A    between atoms: C_14  and  C_15 
REMARK    3  A    between atoms: C_15  and  O_17 
ROOT
HETATM    1  C   UNK N   1       9.704  -5.042   6.679  0.00  0.00     0.051 C 
HETATM    2  C   UNK N   1      10.308  -5.425   5.364  0.00  0.00    -0.020 A 
HETATM    3  C   UNK N   1      10.672  -6.702   4.989  0.00  0.00     0.150 A 
HETATM    4  O   UNK N   1      11.127  -6.682   3.757  0.00  0.00    -0.320 OA
HETATM    5  C   UNK N   1      11.111  -5.446   3.305  0.00  0.00     0.105 A 
HETATM    6  C   UNK N   1      10.580  -4.604   4.281  0.00  0.00     0.080 A 
ENDROOT
BRANCH   5   7
HETATM    7  C   UNK N   1      11.610  -5.090   1.959  0.00  0.00     0.040 A 
HETATM    8  C   UNK N   1      12.991  -4.939   1.755  0.00  0.00     0.059 A 
HETATM    9  C   UNK N   1      13.485  -4.609   0.489  0.00  0.00     0.117 A 
HETATM   10  F   UNK N   1      14.821  -4.498   0.293  0.00  0.00    -0.206 F 
HETATM   11  C   UNK N   1      12.603  -4.395  -0.573  0.00  0.00     0.045 A 
HETATM   12  C   UNK N   1      11.226  -4.512  -0.373  0.00  0.00     0.046 A 
HETATM   13  C   UNK N   1      10.726  -4.863   0.884  0.00  0.00     0.129 A 
HETATM   14  F   UNK N   1       9.381  -4.929   1.063  0.00  0.00    -0.205 F 
ENDBRANCH   5   7
BRANCH   6  15
HETATM   15  C   UNK N   1      10.275  -3.153   4.180  0.00  0.00     0.179 C 
HETATM   16  O   UNK N   1       9.249  -2.776   3.634  0.00  0.00    -0.646 OA
BRANCH  15  17
HETATM   17  O   UNK N   1      11.093  -2.244   4.748  0.00  0.00    -0.773 OA
HETATM   18  H   UNK N   1      10.940  -1.932   5.651  0.00  0.00     0.167 HD
ENDBRANCH  15  17
ENDBRANCH   6  15
TORSDOF 3
ENDMDL
MODEL 3
REMARK VINA RESULT:      -6.4      1.714      3.328
REMARK  3 active torsions:
REMARK  status: ('A' for Active; 'I' for Inactive)
REMARK    1  A    between atoms: C_5  and  C_6 
REMARK    2  A    between atoms: C_14  and  C_15 
REMARK    3  A    between atoms: C_15  and  O_17 
ROOT
HETATM    1  C   UNK N   1      10.284  -2.825   4.325  0.00  0.00     0.051 C 
HETATM    2  C   UNK N   1      10.171  -4.202   4.899  0.00  0.00    -0.020 A 
HETATM    3  C   UNK N   1       9.349  -4.571   5.945  0.00  0.00     0.150 A 
HETATM    4  O   UNK N   1       9.469  -5.862   6.159  0.00  0.00    -0.320 OA
HETATM    5  C   UNK N   1      10.356  -6.364   5.325  0.00  0.00     0.105 A 
HETATM    6  C   UNK N   1      10.822  -5.354   4.484  0.00  0.00     0.080 A 
ENDROOT
BRANCH   5   7
HETATM    7  C   UNK N   1      10.747  -7.789   5.351  0.00  0.00     0.040 A 
HETATM    8  C   UNK N   1       9.923  -8.740   4.728  0.00  0.00     0.059 A 
HETATM    9  C   UNK N   1      10.277 -10.093   4.736  0.00  0.00     0.117 A 
HETATM   10  F   UNK N   1       9.494 -11.000   4.103  0.00  0.00    -0.206 F 
HETATM   11  C   UNK N   1      11.438 -10.510   5.391  0.00  0.00     0.045 A 
HETATM   12  C   UNK N   1      12.248  -9.575   6.040  0.00  0.00     0.046 A 
HETATM   13  C   UNK N   1      11.912  -8.219   6.019  0.00  0.00     0.129 A 
HETATM   14  F   UNK N   1      12.694  -7.337   6.694  0.00  0.00    -0.205 F 
ENDBRANCH   5   7
BRANCH   6  15
HETATM   15  C   UNK N   1      11.747  -5.471   3.328  0.00  0.00     0.179 C 
HETATM   16  O   UNK N   1      11.332  -5.846   2.242  0.00  0.00    -0.646 OA
BRANCH  15  17
HETATM   17  O   UNK N   1      13.038  -5.100   3.448  0.00  0.00    -0.773 OA
HETATM   18  H   UNK N   1      13.292  -4.353   4.008  0.00  0.00     0.167 HD
ENDBRANCH  15  17
ENDBRANCH   6  15
TORSDOF 3
ENDMDL
MODEL 4
REMARK VINA RESULT:      -6.3      3.236      6.043
REMARK  3 active torsions:
REMARK  status: ('A' for Active; 'I' for Inactive)
REMARK    1  A    between atoms: C_5  and  C_6 
REMARK    2  A    between atoms: C_14  and  C_15 
REMARK    3  A    between atoms: C_15  and  O_17 
ROOT
HETATM    1  C   UNK N   1      12.410 -12.576   7.174  0.00  0.00     0.051 C 
HETATM    2  C   UNK N   1      12.067 -11.452   6.249  0.00  0.00    -0.020 A 
HETATM    3  C   UNK N   1      12.264 -11.448   4.883  0.00  0.00     0.150 A 
HETATM    4  O   UNK N   1      11.810 -10.321   4.380  0.00  0.00    -0.320 OA
HETATM    5  C   UNK N   1      11.349  -9.563   5.352  0.00  0.00     0.105 A 
HETATM    6  C   UNK N   1      11.470 -10.241   6.564  0.00  0.00     0.080 A 
ENDROOT
BRANCH   5   7
HETATM    7  C   UNK N   1      10.813  -8.206   5.109  0.00  0.00     0.040 A 
HETATM    8  C   UNK N   1       9.644  -8.056   4.347  0.00  0.00     0.059 A 
HETATM    9  C   UNK N   1       9.116  -6.783   4.110  0.00  0.00     0.117 A 
HETATM   10  F   UNK N   1       7.968  -6.648   3.402  0.00  0.00    -0.206 F 
HETATM   11  C   UNK N   1       9.769  -5.651   4.604  0.00  0.00     0.045 A 
HETATM   12  C   UNK N   1      10.950  -5.788   5.337  0.00  0.00     0.046 A 
HETATM   13  C   UNK N   1      11.472  -7.058   5.595  0.00  0.00     0.129 A 
HETATM   14  F   UNK N   1      12.644  -7.162   6.274  0.00  0.00    -0.205 F 
ENDBRANCH   5   7
BRANCH   6  15
HETATM   15  C   UNK N   1      10.990  -9.822   7.907  0.00  0.00     0.179 C 
HETATM   16  O   UNK N   1      11.773  -9.362   8.725  0.00  0.00    -0.646 OA
BRANCH  15  17
HETATM   17  O   UNK N   1       9.678  -9.882   8.211  0.00  0.00    -0.773 OA
HETATM   18  H   UNK N   1       9.305  -9.337   8.918  0.00  0.00     0.167 HD
ENDBRANCH  15  17
ENDBRANCH   6  15
TORSDOF 3
ENDMDL
MODEL 5
REMARK VINA RESULT:      -6.3      2.715      5.766
REMARK  3 active torsions:
REMARK  status: ('A' for Active; 'I' for Inactive)
REMARK    1  A    between atoms: C_5  and  C_6 
REMARK    2  A    between atoms: C_14  and  C_15 
REMARK    3  A    between atoms: C_15  and  O_17 
ROOT
HETATM    1  C   UNK N   1      11.011  -6.997   5.344  0.00  0.00     0.051 C 
HETATM    2  C   UNK N   1      11.121  -5.760   4.510  0.00  0.00    -0.020 A 
HETATM    3  C   UNK N   1      11.813  -5.652   3.321  0.00  0.00     0.150 A 
HETATM    4  O   UNK N   1      11.664  -4.439   2.837  0.00  0.00    -0.320 OA
HETATM    5  C   UNK N   1      10.930  -3.726   3.665  0.00  0.00     0.105 A 
HETATM    6  C   UNK N   1      10.539  -4.523   4.740  0.00  0.00     0.080 A 
ENDROOT
BRANCH   5   7
HETATM    7  C   UNK N   1      10.624  -2.300   3.421  0.00  0.00     0.040 A 
HETATM    8  C   UNK N   1       9.509  -1.961   2.640  0.00  0.00     0.059 A 
HETATM    9  C   UNK N   1       9.197  -0.618   2.401  0.00  0.00     0.117 A 
HETATM   10  F   UNK N   1       8.099  -0.298   1.674  0.00  0.00    -0.206 F 
HETATM   11  C   UNK N   1      10.015   0.392   2.912  0.00  0.00     0.045 A 
HETATM   12  C   UNK N   1      11.145   0.064   3.664  0.00  0.00     0.046 A 
HETATM   13  C   UNK N   1      11.451  -1.275   3.925  0.00  0.00     0.129 A 
HETATM   14  F   UNK N   1      12.578  -1.568   4.622  0.00  0.00    -0.205 F 
ENDBRANCH   5   7
BRANCH   6  15
HETATM   15  C   UNK N   1       9.625  -4.177   5.859  0.00  0.00     0.179 C 
HETATM   16  O   UNK N   1       8.416  -4.298   5.727  0.00  0.00    -0.646 OA
BRANCH  15  17
HETATM   17  O   UNK N   1      10.123  -3.793   7.051  0.00  0.00    -0.773 OA
HETATM   18  H   UNK N   1       9.625  -3.935   7.869  0.00  0.00     0.167 HD
ENDBRANCH  15  17
ENDBRANCH   6  15
TORSDOF 3
ENDMDL
MODEL 6
REMARK VINA RESULT:      -6.2      2.483      5.069
REMARK  3 active torsions:
REMARK  status: ('A' for Active; 'I' for Inactive)
REMARK    1  A    between atoms: C_5  and  C_6 
REMARK    2  A    between atoms: C_14  and  C_15 
REMARK    3  A    between atoms: C_15  and  O_17 
ROOT
HETATM    1  C   UNK N   1       9.979  -7.214   6.277  0.00  0.00     0.051 C 
HETATM    2  C   UNK N   1      10.410  -6.341   5.141  0.00  0.00    -0.020 A 
HETATM    3  C   UNK N   1      11.032  -6.772   3.988  0.00  0.00     0.150 A 
HETATM    4  O   UNK N   1      11.229  -5.748   3.188  0.00  0.00    -0.320 OA
HETATM    5  C   UNK N   1      10.794  -4.649   3.770  0.00  0.00     0.105 A 
HETATM    6  C   UNK N   1      10.243  -4.971   5.010  0.00  0.00     0.080 A 
ENDROOT
BRANCH   5   7
HETATM    7  C   UNK N   1      10.920  -3.318   3.139  0.00  0.00     0.040 A 
HETATM    8  C   UNK N   1      12.158  -2.658   3.169  0.00  0.00     0.059 A 
HETATM    9  C   UNK N   1      12.301  -1.401   2.573  0.00  0.00     0.117 A 
HETATM   10  F   UNK N   1      13.508  -0.784   2.576  0.00  0.00    -0.206 F 
HETATM   11  C   UNK N   1      11.202  -0.781   1.973  0.00  0.00     0.045 A 
HETATM   12  C   UNK N   1       9.959  -1.416   1.965  0.00  0.00     0.046 A 
HETATM   13  C   UNK N   1       9.813  -2.682   2.540  0.00  0.00     0.129 A 
HETATM   14  F   UNK N   1       8.584  -3.259   2.557  0.00  0.00    -0.205 F 
ENDBRANCH   5   7
BRANCH   6  15
HETATM   15  C   UNK N   1       9.543  -4.075   5.967  0.00  0.00     0.179 C 
HETATM   16  O   UNK N   1       8.398  -3.711   5.744  0.00  0.00    -0.646 OA
BRANCH  15  17
HETATM   17  O   UNK N   1      10.138  -3.712   7.121  0.00  0.00    -0.773 OA
HETATM   18  H   UNK N   1      10.684  -4.336   7.618  0.00  0.00     0.167 HD
ENDBRANCH  15  17
ENDBRANCH   6  15
TORSDOF 3
ENDMDL
MODEL 7
REMARK VINA RESULT:      -6.2      1.590      2.949
REMARK  3 active torsions:
REMARK  status: ('A' for Active; 'I' for Inactive)
REMARK    1  A    between atoms: C_5  and  C_6 
REMARK    2  A    between atoms: C_14  and  C_15 
REMARK    3  A    between atoms: C_15  and  O_17 
ROOT
HETATM    1  C   UNK N   1      13.052  -1.220   2.366  0.00  0.00     0.051 C 
HETATM    2  C   UNK N   1      12.252  -2.195   3.171  0.00  0.00    -0.020 A 
HETATM    3  C   UNK N   1      11.523  -1.894   4.303  0.00  0.00     0.150 A 
HETATM    4  O   UNK N   1      10.910  -2.976   4.728  0.00  0.00    -0.320 OA
HETATM    5  C   UNK N   1      11.222  -3.990   3.949  0.00  0.00     0.105 A 
HETATM    6  C   UNK N   1      12.060  -3.546   2.927  0.00  0.00     0.080 A 
ENDROOT
BRANCH   5   7
HETATM    7  C   UNK N   1      10.725  -5.360   4.198  0.00  0.00     0.040 A 
HETATM    8  C   UNK N   1      11.615  -6.339   4.667  0.00  0.00     0.059 A 
HETATM    9  C   UNK N   1      11.166  -7.640   4.915  0.00  0.00     0.117 A 
HETATM   10  F   UNK N   1      12.023  -8.571   5.399  0.00  0.00    -0.206 F 
HETATM   11  C   UNK N   1       9.834  -7.980   4.666  0.00  0.00     0.045 A 
HETATM   12  C   UNK N   1       8.948  -7.021   4.170  0.00  0.00     0.046 A 
HETATM   13  C   UNK N   1       9.385  -5.714   3.940  0.00  0.00     0.129 A 
HETATM   14  F   UNK N   1       8.515  -4.811   3.418  0.00  0.00    -0.205 F 
ENDBRANCH   5   7
BRANCH   6  15
HETATM   15  C   UNK N   1      12.579  -4.311   1.763  0.00  0.00     0.179 C 
HETATM   16  O   UNK N   1      11.865  -4.515   0.792  0.00  0.00    -0.646 OA
BRANCH  15  17
HETATM   17  O   UNK N   1      13.861  -4.727   1.738  0.00  0.00    -0.773 OA
HETATM   18  H   UNK N   1      14.364  -4.843   2.556  0.00  0.00     0.167 HD
ENDBRANCH  15  17
ENDBRANCH   6  15
TORSDOF 3
ENDMDL
MODEL 8
REMARK VINA RESULT:      -6.1      2.098      2.740
REMARK  3 active torsions:
REMARK  status: ('A' for Active; 'I' for Inactive)
REMARK    1  A    between atoms: C_5  and  C_6 
REMARK    2  A    between atoms: C_14  and  C_15 
REMARK    3  A    between atoms: C_15  and  O_17 
ROOT
HETATM    1  C   UNK N   1      13.550  -0.395   1.955  0.00  0.00     0.051 C 
HETATM    2  C   UNK N   1      13.100  -1.822   1.962  0.00  0.00    -0.020 A 
HETATM    3  C   UNK N   1      13.503  -2.795   1.070  0.00  0.00     0.150 A 
HETATM    4  O   UNK N   1      12.947  -3.941   1.395  0.00  0.00    -0.320 OA
HETATM    5  C   UNK N   1      12.169  -3.769   2.443  0.00  0.00     0.105 A 
HETATM    6  C   UNK N   1      12.243  -2.440   2.859  0.00  0.00     0.080 A 
ENDROOT
BRANCH   5   7
HETATM    7  C   UNK N   1      11.365  -4.868   3.019  0.00  0.00     0.040 A 
HETATM    8  C   UNK N   1      11.999  -5.844   3.804  0.00  0.00     0.059 A 
HETATM    9  C   UNK N   1      11.257  -6.889   4.364  0.00  0.00     0.117 A 
HETATM   10  F   UNK N   1      11.871  -7.809   5.148  0.00  0.00    -0.206 F 
HETATM   11  C   UNK N   1       9.886  -6.985   4.118  0.00  0.00     0.045 A 
HETATM   12  C   UNK N   1       9.252  -6.036   3.313  0.00  0.00     0.046 A 
HETATM   13  C   UNK N   1       9.982  -4.977   2.767  0.00  0.00     0.129 A 
HETATM   14  F   UNK N   1       9.351  -4.092   1.954  0.00  0.00    -0.205 F 
ENDBRANCH   5   7
BRANCH   6  15
HETATM   15  C   UNK N   1      11.621  -1.813   4.054  0.00  0.00     0.179 C 
HETATM   16  O   UNK N   1      10.404  -1.774   4.166  0.00  0.00    -0.646 OA
BRANCH  15  17
HETATM   17  O   UNK N   1      12.391  -1.344   5.056  0.00  0.00    -0.773 OA
HETATM   18  H   UNK N   1      13.309  -1.083   4.899  0.00  0.00     0.167 HD
ENDBRANCH  15  17
ENDBRANCH   6  15
TORSDOF 3
ENDMDL
MODEL 9
REMARK VINA RESULT:      -6.1      2.085      2.551
REMARK  3 active torsions:
REMARK  status: ('A' for Active; 'I' for Inactive)
REMARK    1  A    between atoms: C_5  and  C_6 
REMARK    2  A    between atoms: C_14  and  C_15 
REMARK    3  A    between atoms: C_15  and  O_17 
ROOT
HETATM    1  C   UNK N   1       9.194  -1.552   1.774  0.00  0.00     0.051 C 
HETATM    2  C   UNK N   1       9.557  -2.996   1.917  0.00  0.00    -0.020 A 
HETATM    3  C   UNK N   1       9.747  -3.883   0.877  0.00  0.00     0.150 A 
HETATM    4  O   UNK N   1      10.098  -5.054   1.360  0.00  0.00    -0.320 OA
HETATM    5  C   UNK N   1      10.122  -4.995   2.675  0.00  0.00     0.105 A 
HETATM    6  C   UNK N   1       9.804  -3.700   3.085  0.00  0.00     0.080 A 
ENDROOT
BRANCH   5   7
HETATM    7  C   UNK N   1      10.436  -6.171   3.514  0.00  0.00     0.040 A 
HETATM    8  C   UNK N   1       9.441  -7.133   3.750  0.00  0.00     0.059 A 
HETATM    9  C   UNK N   1       9.719  -8.256   4.535  0.00  0.00     0.117 A 
HETATM   10  F   UNK N   1       8.762  -9.197   4.731  0.00  0.00    -0.206 F 
HETATM   11  C   UNK N   1      10.980  -8.412   5.116  0.00  0.00     0.045 A 
HETATM   12  C   UNK N   1      11.967  -7.445   4.912  0.00  0.00     0.046 A 
HETATM   13  C   UNK N   1      11.704  -6.330   4.111  0.00  0.00     0.129 A 
HETATM   14  F   UNK N   1      12.667  -5.384   3.964  0.00  0.00    -0.205 F 
ENDBRANCH   5   7
BRANCH   6  15
HETATM   15  C   UNK N   1       9.808  -3.143   4.463  0.00  0.00     0.179 C 
HETATM   16  O   UNK N   1      10.803  -2.581   4.897  0.00  0.00    -0.646 OA
BRANCH  15  17
HETATM   17  O   UNK N   1       8.694  -3.191   5.221  0.00  0.00    -0.773 OA
HETATM   18  H   UNK N   1       8.479  -3.978   5.741  0.00  0.00     0.167 HD
ENDBRANCH  15  17
ENDBRANCH   6  15
TORSDOF 3
ENDMDL
