MODEL 1
REMARK VINA RESULT:      -7.0      0.000      0.000
REMARK  4 active torsions:
REMARK  status: ('A' for Active; 'I' for Inactive)
REMARK    1  A    between atoms: C_2  and  O_3 
REMARK    2  A    between atoms: C_2  and  C_4 
REMARK    3  A    between atoms: C_11  and  C_12 
REMARK    4  A    between atoms: C_14  and  C_15 
ROOT
HETATM    1  C   UNK N   1      10.570  -2.631   2.414  0.00  0.00     0.083 A 
HETATM    2  C   UNK N   1      11.945  -2.296   2.484  0.00  0.00     0.136 A 
HETATM    3  F   UNK N   1      12.360  -1.161   3.101  0.00  0.00    -0.205 F 
HETATM    4  C   UNK N   1      12.910  -3.116   1.903  0.00  0.00     0.085 A 
HETATM    5  C   UNK N   1      12.539  -4.279   1.244  0.00  0.00     0.119 A 
HETATM    6  F   UNK N   1      13.485  -5.054   0.659  0.00  0.00    -0.206 F 
HETATM    7  C   UNK N   1      11.200  -4.653   1.181  0.00  0.00     0.051 A 
HETATM    8  C   UNK N   1      10.192  -3.856   1.774  0.00  0.00    -0.030 A 
ENDROOT
BRANCH   8   9
HETATM    9  C   UNK N   1       8.721  -4.278   1.711  0.00  0.00     0.029 A 
HETATM   10  C   UNK N   1       8.456  -5.689   1.196  0.00  0.00     0.020 A 
HETATM   11  C   UNK N   1       8.132  -5.346   2.656  0.00  0.00     0.031 A 
BRANCH  11  12
HETATM   12  C   UNK N   1       9.064  -5.832   3.756  0.00  0.00    -0.015 A 
HETATM   13  C   UNK N   1       9.910  -6.934   3.536  0.00  0.00     0.011 A 
HETATM   14  C   UNK N   1      10.792  -7.364   4.531  0.00  0.00     0.001 A 
HETATM   15  C   UNK N   1      10.851  -6.691   5.752  0.00  0.00     0.003 A 
HETATM   16  C   UNK N   1      10.033  -5.581   5.977  0.00  0.00     0.043 A 
HETATM   17  C   UNK N   1       9.147  -5.146   4.985  0.00  0.00     0.123 A 
HETATM   18  F   UNK N   1       8.385  -4.049   5.220  0.00  0.00    -0.206 F 
ENDBRANCH  11  12
ENDBRANCH   8   9
BRANCH   1  19
HETATM   19  C   UNK N   1       9.560  -1.689   3.013  0.00  0.00     0.179 C 
HETATM   20  O   UNK N   1       9.506  -1.540   4.226  0.00  0.00    -0.646 OA
BRANCH  19  21
HETATM   21  O   UNK N   1       8.720  -0.978   2.235  0.00  0.00    -0.773 OA
HETATM   22  H   UNK N   1       8.829  -0.023   2.116  0.00  0.00     0.167 HD
ENDBRANCH  19  21
ENDBRANCH   1  19
TORSDOF 4
ENDMDL
MODEL 2
REMARK VINA RESULT:      -6.9      2.406      3.782
REMARK  4 active torsions:
REMARK  status: ('A' for Active; 'I' for Inactive)
REMARK    1  A    between atoms: C_2  and  O_3 
REMARK    2  A    between atoms: C_2  and  C_4 
REMARK    3  A    between atoms: C_11  and  C_12 
REMARK    4  A    between atoms: C_14  and  C_15 
ROOT
HETATM    1  C   UNK N   1       9.628  -2.451   3.414  0.00  0.00     0.083 A 
HETATM    2  C   UNK N   1      10.140  -1.130   3.388  0.00  0.00     0.136 A 
HETATM    3  F   UNK N   1      10.721  -0.581   4.484  0.00  0.00    -0.205 F 
HETATM    4  C   UNK N   1      10.043  -0.350   2.238  0.00  0.00     0.085 A 
HETATM    5  C   UNK N   1       9.442  -0.855   1.094  0.00  0.00     0.119 A 
HETATM    6  F   UNK N   1       9.329  -0.076  -0.009  0.00  0.00    -0.206 F 
HETATM    7  C   UNK N   1       8.955  -2.158   1.077  0.00  0.00     0.051 A 
HETATM    8  C   UNK N   1       9.050  -2.989   2.219  0.00  0.00    -0.030 A 
ENDROOT
BRANCH   8   9
HETATM    9  C   UNK N   1       8.521  -4.426   2.189  0.00  0.00     0.029 A 
HETATM   10  C   UNK N   1       8.202  -4.988   0.809  0.00  0.00     0.020 A 
HETATM   11  C   UNK N   1       9.353  -5.595   1.622  0.00  0.00     0.031 A 
BRANCH  11  12
HETATM   12  C   UNK N   1      10.787  -5.255   1.246  0.00  0.00    -0.015 A 
HETATM   13  C   UNK N   1      11.074  -4.656   0.005  0.00  0.00     0.011 A 
HETATM   14  C   UNK N   1      12.386  -4.312  -0.332  0.00  0.00     0.001 A 
HETATM   15  C   UNK N   1      13.425  -4.547   0.569  0.00  0.00     0.003 A 
HETATM   16  C   UNK N   1      13.153  -5.121   1.813  0.00  0.00     0.043 A 
HETATM   17  C   UNK N   1      11.842  -5.470   2.157  0.00  0.00     0.123 A 
HETATM   18  F   UNK N   1      11.603  -5.999   3.383  0.00  0.00    -0.206 F 
ENDBRANCH  11  12
ENDBRANCH   8   9
BRANCH   1  19
HETATM   19  C   UNK N   1       9.712  -3.238   4.695  0.00  0.00     0.179 C 
HETATM   20  O   UNK N   1      10.784  -3.701   5.061  0.00  0.00    -0.646 OA
BRANCH  19  21
HETATM   21  O   UNK N   1       8.627  -3.426   5.471  0.00  0.00    -0.773 OA
HETATM   22  H   UNK N   1       7.853  -2.847   5.407  0.00  0.00     0.167 HD
ENDBRANCH  19  21
ENDBRANCH   1  19
TORSDOF 4
ENDMDL
MODEL 3
REMARK VINA RESULT:      -6.9      2.220      4.198
REMARK  4 active torsions:
REMARK  status: ('A' for Active; 'I' for Inactive)
REMARK    1  A    between atoms: C_2  and  O_3 
REMARK    2  A    between atoms: C_2  and  C_4 
REMARK    3  A    between atoms: C_11  and  C_12 
REMARK    4  A    between atoms: C_14  and  C_15 
ROOT
HETATM    1  C   UNK N   1      10.498  -4.581   4.836  0.00  0.00     0.083 A 
HETATM    2  C   UNK N   1      11.150  -5.837   4.925  0.00  0.00     0.136 A 
HETATM    3  F   UNK N   1      10.908  -6.681   5.960  0.00  0.00    -0.205 F 
HETATM    4  C   UNK N   1      12.074  -6.232   3.961  0.00  0.00     0.085 A 
HETATM    5  C   UNK N   1      12.373  -5.400   2.891  0.00  0.00     0.119 A 
HETATM    6  F   UNK N   1      13.295  -5.783   1.974  0.00  0.00    -0.206 F 
HETATM    7  C   UNK N   1      11.730  -4.173   2.757  0.00  0.00     0.051 A 
HETATM    8  C   UNK N   1      10.772  -3.743   3.707  0.00  0.00    -0.030 A 
ENDROOT
BRANCH   8   9
HETATM    9  C   UNK N   1      10.061  -2.397   3.548  0.00  0.00     0.029 A 
HETATM   10  C   UNK N   1      10.591  -1.491   2.442  0.00  0.00     0.020 A 
HETATM   11  C   UNK N   1       9.177  -2.074   2.325  0.00  0.00     0.031 A 
BRANCH  11  12
HETATM   12  C   UNK N   1       8.931  -3.234   1.372  0.00  0.00    -0.015 A 
HETATM   13  C   UNK N   1       9.578  -3.280   0.124  0.00  0.00     0.011 A 
HETATM   14  C   UNK N   1       9.381  -4.359  -0.741  0.00  0.00     0.001 A 
HETATM   15  C   UNK N   1       8.547  -5.413  -0.366  0.00  0.00     0.003 A 
HETATM   16  C   UNK N   1       7.914  -5.393   0.879  0.00  0.00     0.043 A 
HETATM   17  C   UNK N   1       8.106  -4.314   1.750  0.00  0.00     0.123 A 
HETATM   18  F   UNK N   1       7.502  -4.334   2.964  0.00  0.00    -0.206 F 
ENDBRANCH  11  12
ENDBRANCH   8   9
BRANCH   1  19
HETATM   19  C   UNK N   1       9.545  -4.178   5.928  0.00  0.00     0.179 C 
HETATM   20  O   UNK N   1       8.340  -4.319   5.773  0.00  0.00    -0.646 OA
BRANCH  19  21
HETATM   21  O   UNK N   1       9.993  -3.682   7.099  0.00  0.00    -0.773 OA
HETATM   22  H   UNK N   1      10.169  -2.736   7.212  0.00  0.00     0.167 HD
ENDBRANCH  19  21
ENDBRANCH   1  19
TORSDOF 4
ENDMDL
MODEL 4
REMARK VINA RESULT:      -6.3      5.935      8.569
REMARK  4 active torsions:
REMARK  status: ('A' for Active; 'I' for Inactive)
REMARK    1  A    between atoms: C_2  and  O_3 
REMARK    2  A    between atoms: C_2  and  C_4 
REMARK    3  A    between atoms: C_11  and  C_12 
REMARK    4  A    between atoms: C_14  and  C_15 
ROOT
HETATM    1  C   UNK N   1      10.489 -12.380   5.939  0.00  0.00     0.083 A 
HETATM    2  C   UNK N   1      10.973 -13.048   4.786  0.00  0.00     0.136 A 
HETATM    3  F   UNK N   1      10.143 -13.773   3.995  0.00  0.00    -0.205 F 
HETATM    4  C   UNK N   1      12.322 -12.993   4.443  0.00  0.00     0.085 A 
HETATM    5  C   UNK N   1      13.218 -12.279   5.227  0.00  0.00     0.119 A 
HETATM    6  F   UNK N   1      14.533 -12.257   4.899  0.00  0.00    -0.206 F 
HETATM    7  C   UNK N   1      12.771 -11.589   6.350  0.00  0.00     0.051 A 
HETATM    8  C   UNK N   1      11.406 -11.606   6.722  0.00  0.00    -0.030 A 
ENDROOT
BRANCH   8   9
HETATM    9  C   UNK N   1      10.918 -10.834   7.951  0.00  0.00     0.029 A 
HETATM   10  C   UNK N   1      11.913  -9.849   8.555  0.00  0.00     0.020 A 
HETATM   11  C   UNK N   1      10.626  -9.320   7.908  0.00  0.00     0.031 A 
BRANCH  11  12
HETATM   12  C   UNK N   1      10.698  -8.679   6.531  0.00  0.00    -0.015 A 
HETATM   13  C   UNK N   1       9.605  -8.763   5.648  0.00  0.00     0.011 A 
HETATM   14  C   UNK N   1       9.653  -8.148   4.395  0.00  0.00     0.001 A 
HETATM   15  C   UNK N   1      10.787  -7.430   4.011  0.00  0.00     0.003 A 
HETATM   16  C   UNK N   1      11.871  -7.320   4.884  0.00  0.00     0.043 A 
HETATM   17  C   UNK N   1      11.830  -7.935   6.140  0.00  0.00     0.123 A 
HETATM   18  F   UNK N   1      12.887  -7.787   6.979  0.00  0.00    -0.206 F 
ENDBRANCH  11  12
ENDBRANCH   8   9
BRANCH   1  19
HETATM   19  C   UNK N   1       9.032 -12.509   6.295  0.00  0.00     0.179 C 
HETATM   20  O   UNK N   1       8.234 -11.655   5.934  0.00  0.00    -0.646 OA
BRANCH  19  21
HETATM   21  O   UNK N   1       8.575 -13.570   6.991  0.00  0.00    -0.773 OA
HETATM   22  H   UNK N   1       8.683 -14.474   6.662  0.00  0.00     0.167 HD
ENDBRANCH  19  21
ENDBRANCH   1  19
TORSDOF 4
ENDMDL
MODEL 5
REMARK VINA RESULT:      -6.1      2.357      5.118
REMARK  4 active torsions:
REMARK  status: ('A' for Active; 'I' for Inactive)
REMARK    1  A    between atoms: C_2  and  O_3 
REMARK    2  A    between atoms: C_2  and  C_4 
REMARK    3  A    between atoms: C_11  and  C_12 
REMARK    4  A    between atoms: C_14  and  C_15 
ROOT
HETATM    1  C   UNK N   1      10.293  -5.480   2.604  0.00  0.00     0.083 A 
HETATM    2  C   UNK N   1       8.885  -5.523   2.453  0.00  0.00     0.136 A 
HETATM    3  F   UNK N   1       8.075  -5.800   3.506  0.00  0.00    -0.205 F 
HETATM    4  C   UNK N   1       8.292  -5.302   1.212  0.00  0.00     0.085 A 
HETATM    5  C   UNK N   1       9.074  -5.032   0.098  0.00  0.00     0.119 A 
HETATM    6  F   UNK N   1       8.487  -4.846  -1.110  0.00  0.00    -0.206 F 
HETATM    7  C   UNK N   1      10.459  -4.954   0.216  0.00  0.00     0.051 A 
HETATM    8  C   UNK N   1      11.097  -5.155   1.463  0.00  0.00    -0.030 A 
ENDROOT
BRANCH   8   9
HETATM    9  C   UNK N   1      12.620  -5.056   1.588  0.00  0.00     0.029 A 
HETATM   10  C   UNK N   1      13.357  -4.543   0.356  0.00  0.00     0.020 A 
HETATM   11  C   UNK N   1      13.354  -3.700   1.637  0.00  0.00     0.031 A 
BRANCH  11  12
HETATM   12  C   UNK N   1      12.457  -2.474   1.716  0.00  0.00    -0.015 A 
HETATM   13  C   UNK N   1      12.008  -1.844   0.540  0.00  0.00     0.011 A 
HETATM   14  C   UNK N   1      11.157  -0.737   0.606  0.00  0.00     0.001 A 
HETATM   15  C   UNK N   1      10.732  -0.255   1.844  0.00  0.00     0.003 A 
HETATM   16  C   UNK N   1      11.151  -0.882   3.019  0.00  0.00     0.043 A 
HETATM   17  C   UNK N   1      12.004  -1.990   2.961  0.00  0.00     0.123 A 
HETATM   18  F   UNK N   1      12.372  -2.598   4.117  0.00  0.00    -0.206 F 
ENDBRANCH  11  12
ENDBRANCH   8   9
BRANCH   1  19
HETATM   19  C   UNK N   1      10.890  -5.774   3.954  0.00  0.00     0.179 C 
HETATM   20  O   UNK N   1      10.782  -4.962   4.862  0.00  0.00    -0.646 OA
BRANCH  19  21
HETATM   21  O   UNK N   1      11.526  -6.937   4.198  0.00  0.00    -0.773 OA
HETATM   22  H   UNK N   1      11.621  -7.282   5.098  0.00  0.00     0.167 HD
ENDBRANCH  19  21
ENDBRANCH   1  19
TORSDOF 4
ENDMDL
MODEL 6
REMARK VINA RESULT:      -6.0      2.843      4.209
REMARK  4 active torsions:
REMARK  status: ('A' for Active; 'I' for Inactive)
REMARK    1  A    between atoms: C_2  and  O_3 
REMARK    2  A    between atoms: C_2  and  C_4 
REMARK    3  A    between atoms: C_11  and  C_12 
REMARK    4  A    between atoms: C_14  and  C_15 
ROOT
HETATM    1  C   UNK N   1      12.377  -3.495   0.656  0.00  0.00     0.083 A 
HETATM    2  C   UNK N   1      11.930  -3.865  -0.637  0.00  0.00     0.136 A 
HETATM    3  F   UNK N   1      12.610  -4.774  -1.381  0.00  0.00    -0.205 F 
HETATM    4  C   UNK N   1      10.788  -3.291  -1.189  0.00  0.00     0.085 A 
HETATM    5  C   UNK N   1      10.064  -2.343  -0.479  0.00  0.00     0.119 A 
HETATM    6  F   UNK N   1       8.970  -1.770  -1.038  0.00  0.00    -0.206 F 
HETATM    7  C   UNK N   1      10.459  -1.978   0.805  0.00  0.00     0.051 A 
HETATM    8  C   UNK N   1      11.604  -2.551   1.407  0.00  0.00    -0.030 A 
ENDROOT
BRANCH   8   9
HETATM    9  C   UNK N   1      12.026  -2.153   2.824  0.00  0.00     0.029 A 
HETATM   10  C   UNK N   1      10.987  -1.389   3.638  0.00  0.00     0.020 A 
HETATM   11  C   UNK N   1      11.403  -2.799   4.079  0.00  0.00     0.031 A 
BRANCH  11  12
HETATM   12  C   UNK N   1      10.462  -3.965   3.815  0.00  0.00    -0.015 A 
HETATM   13  C   UNK N   1       9.105  -3.734   3.526  0.00  0.00     0.011 A 
HETATM   14  C   UNK N   1       8.244  -4.799   3.251  0.00  0.00     0.001 A 
HETATM   15  C   UNK N   1       8.729  -6.107   3.246  0.00  0.00     0.003 A 
HETATM   16  C   UNK N   1      10.079  -6.352   3.510  0.00  0.00     0.043 A 
HETATM   17  C   UNK N   1      10.946  -5.289   3.789  0.00  0.00     0.123 A 
HETATM   18  F   UNK N   1      12.258  -5.554   4.013  0.00  0.00    -0.206 F 
ENDBRANCH  11  12
ENDBRANCH   8   9
BRANCH   1  19
HETATM   19  C   UNK N   1      13.644  -4.107   1.190  0.00  0.00     0.179 C 
HETATM   20  O   UNK N   1      13.664  -5.284   1.522  0.00  0.00    -0.646 OA
BRANCH  19  21
HETATM   21  O   UNK N   1      14.780  -3.387   1.290  0.00  0.00    -0.773 OA
HETATM   22  H   UNK N   1      15.256  -3.309   2.130  0.00  0.00     0.167 HD
ENDBRANCH  19  21
ENDBRANCH   1  19
TORSDOF 4
ENDMDL
MODEL 7
REMARK VINA RESULT:      -6.0      2.278      3.845
REMARK  4 active torsions:
REMARK  status: ('A' for Active; 'I' for Inactive)
REMARK    1  A    between atoms: C_2  and  O_3 
REMARK    2  A    between atoms: C_2  and  C_4 
REMARK    3  A    between atoms: C_11  and  C_12 
REMARK    4  A    between atoms: C_14  and  C_15 
ROOT
HETATM    1  C   UNK N   1      10.580  -1.595   1.312  0.00  0.00     0.083 A 
HETATM    2  C   UNK N   1       9.913  -0.883   2.340  0.00  0.00     0.136 A 
HETATM    3  F   UNK N   1       8.698  -0.319   2.127  0.00  0.00    -0.205 F 
HETATM    4  C   UNK N   1      10.497  -0.727   3.595  0.00  0.00     0.085 A 
HETATM    5  C   UNK N   1      11.746  -1.269   3.862  0.00  0.00     0.119 A 
HETATM    6  F   UNK N   1      12.316  -1.086   5.078  0.00  0.00    -0.206 F 
HETATM    7  C   UNK N   1      12.416  -1.998   2.884  0.00  0.00     0.051 A 
HETATM    8  C   UNK N   1      11.849  -2.194   1.602  0.00  0.00    -0.030 A 
ENDROOT
BRANCH   8   9
HETATM    9  C   UNK N   1      12.587  -3.007   0.535  0.00  0.00     0.029 A 
HETATM   10  C   UNK N   1      13.870  -3.694   0.991  0.00  0.00     0.020 A 
HETATM   11  C   UNK N   1      12.662  -4.547   0.582  0.00  0.00     0.031 A 
BRANCH  11  12
HETATM   12  C   UNK N   1      11.822  -5.210   1.663  0.00  0.00    -0.015 A 
HETATM   13  C   UNK N   1      12.399  -5.560   2.898  0.00  0.00     0.011 A 
HETATM   14  C   UNK N   1      11.625  -6.139   3.907  0.00  0.00     0.001 A 
HETATM   15  C   UNK N   1      10.263  -6.363   3.702  0.00  0.00     0.003 A 
HETATM   16  C   UNK N   1       9.671  -6.001   2.490  0.00  0.00     0.043 A 
HETATM   17  C   UNK N   1      10.441  -5.423   1.474  0.00  0.00     0.123 A 
HETATM   18  F   UNK N   1       9.834  -5.055   0.318  0.00  0.00    -0.206 F 
ENDBRANCH  11  12
ENDBRANCH   8   9
BRANCH   1  19
HETATM   19  C   UNK N   1       9.931  -1.695  -0.042  0.00  0.00     0.179 C 
HETATM   20  O   UNK N   1       8.974  -2.438  -0.209  0.00  0.00    -0.646 OA
BRANCH  19  21
HETATM   21  O   UNK N   1      10.369  -0.959  -1.083  0.00  0.00    -0.773 OA
HETATM   22  H   UNK N   1      10.852  -0.130  -0.947  0.00  0.00     0.167 HD
ENDBRANCH  19  21
ENDBRANCH   1  19
TORSDOF 4
ENDMDL
MODEL 8
REMARK VINA RESULT:      -5.9      2.497      3.590
REMARK  4 active torsions:
REMARK  status: ('A' for Active; 'I' for Inactive)
REMARK    1  A    between atoms: C_2  and  O_3 
REMARK    2  A    between atoms: C_2  and  C_4 
REMARK    3  A    between atoms: C_11  and  C_12 
REMARK    4  A    between atoms: C_14  and  C_15 
ROOT
HETATM    1  C   UNK N   1      11.944  -3.607   0.739  0.00  0.00     0.083 A 
HETATM    2  C   UNK N   1      11.729  -4.339  -0.455  0.00  0.00     0.136 A 
HETATM    3  F   UNK N   1      12.772  -4.820  -1.180  0.00  0.00    -0.205 F 
HETATM    4  C   UNK N   1      10.440  -4.572  -0.930  0.00  0.00     0.085 A 
HETATM    5  C   UNK N   1       9.339  -4.088  -0.237  0.00  0.00     0.119 A 
HETATM    6  F   UNK N   1       8.091  -4.296  -0.723  0.00  0.00    -0.206 F 
HETATM    7  C   UNK N   1       9.512  -3.389   0.954  0.00  0.00     0.051 A 
HETATM    8  C   UNK N   1      10.805  -3.148   1.478  0.00  0.00    -0.030 A 
ENDROOT
BRANCH   8   9
HETATM    9  C   UNK N   1      10.988  -2.389   2.794  0.00  0.00     0.029 A 
HETATM   10  C   UNK N   1       9.715  -2.120   3.589  0.00  0.00     0.020 A 
HETATM   11  C   UNK N   1      10.779  -3.062   4.167  0.00  0.00     0.031 A 
BRANCH  11  12
HETATM   12  C   UNK N   1      10.539  -4.564   4.129  0.00  0.00    -0.015 A 
HETATM   13  C   UNK N   1      11.622  -5.455   4.018  0.00  0.00     0.011 A 
HETATM   14  C   UNK N   1      11.409  -6.837   4.016  0.00  0.00     0.001 A 
HETATM   15  C   UNK N   1      10.116  -7.345   4.137  0.00  0.00     0.003 A 
HETATM   16  C   UNK N   1       9.032  -6.474   4.269  0.00  0.00     0.043 A 
HETATM   17  C   UNK N   1       9.238  -5.089   4.271  0.00  0.00     0.123 A 
HETATM   18  F   UNK N   1       8.171  -4.267   4.429  0.00  0.00    -0.206 F 
ENDBRANCH  11  12
ENDBRANCH   8   9
BRANCH   1  19
HETATM   19  C   UNK N   1      13.356  -3.340   1.184  0.00  0.00     0.179 C 
HETATM   20  O   UNK N   1      13.875  -2.256   0.960  0.00  0.00    -0.646 OA
BRANCH  19  21
HETATM   21  O   UNK N   1      14.064  -4.270   1.856  0.00  0.00    -0.773 OA
HETATM   22  H   UNK N   1      14.009  -4.348   2.820  0.00  0.00     0.167 HD
ENDBRANCH  19  21
ENDBRANCH   1  19
TORSDOF 4
ENDMDL
MODEL 9
REMARK VINA RESULT:      -5.8      2.895      5.145
REMARK  4 active torsions:
REMARK  status: ('A' for Active; 'I' for Inactive)
REMARK    1  A    between atoms: C_2  and  O_3 
REMARK    2  A    between atoms: C_2  and  C_4 
REMARK    3  A    between atoms: C_11  and  C_12 
REMARK    4  A    between atoms: C_14  and  C_15 
ROOT
HETATM    1  C   UNK N   1      10.774  -1.873   2.897  0.00  0.00     0.083 A 
HETATM    2  C   UNK N   1       9.903  -0.850   2.446  0.00  0.00     0.136 A 
HETATM    3  F   UNK N   1       9.769   0.312   3.136  0.00  0.00    -0.205 F 
HETATM    4  C   UNK N   1       9.143  -1.016   1.291  0.00  0.00     0.085 A 
HETATM    5  C   UNK N   1       9.228  -2.191   0.557  0.00  0.00     0.119 A 
HETATM    6  F   UNK N   1       8.463  -2.352  -0.550  0.00  0.00    -0.206 F 
HETATM    7  C   UNK N   1      10.094  -3.204   0.956  0.00  0.00     0.051 A 
HETATM    8  C   UNK N   1      10.896  -3.067   2.114  0.00  0.00    -0.030 A 
ENDROOT
BRANCH   8   9
HETATM    9  C   UNK N   1      11.855  -4.181   2.540  0.00  0.00     0.029 A 
HETATM   10  C   UNK N   1      11.759  -5.480   1.749  0.00  0.00     0.020 A 
HETATM   11  C   UNK N   1      13.035  -4.633   1.654  0.00  0.00     0.031 A 
BRANCH  11  12
HETATM   12  C   UNK N   1      13.276  -3.793   0.409  0.00  0.00    -0.015 A 
HETATM   13  C   UNK N   1      12.910  -4.280  -0.860  0.00  0.00     0.011 A 
HETATM   14  C   UNK N   1      13.099  -3.499  -2.003  0.00  0.00     0.001 A 
HETATM   15  C   UNK N   1      13.642  -2.219  -1.894  0.00  0.00     0.003 A 
HETATM   16  C   UNK N   1      13.991  -1.713  -0.640  0.00  0.00     0.043 A 
HETATM   17  C   UNK N   1      13.805  -2.490   0.510  0.00  0.00     0.123 A 
HETATM   18  F   UNK N   1      14.126  -1.963   1.718  0.00  0.00    -0.206 F 
ENDBRANCH  11  12
ENDBRANCH   8   9
BRANCH   1  19
HETATM   19  C   UNK N   1      11.537  -1.666   4.178  0.00  0.00     0.179 C 
HETATM   20  O   UNK N   1      11.136  -2.169   5.218  0.00  0.00    -0.646 OA
BRANCH  19  21
HETATM   21  O   UNK N   1      12.680  -0.952   4.203  0.00  0.00    -0.773 OA
HETATM   22  H   UNK N   1      12.670   0.017   4.193  0.00  0.00     0.167 HD
ENDBRANCH  19  21
ENDBRANCH   1  19
TORSDOF 4
ENDMDL
