MODEL 1
REMARK VINA RESULT:      -6.3      0.000      0.000
REMARK  4 active torsions:
REMARK  status: ('A' for Active; 'I' for Inactive)
REMARK    1  A    between atoms: C_2  and  O_3 
REMARK    2  A    between atoms: C_2  and  C_4 
REMARK    3  A    between atoms: C_7  and  C_8 
REMARK    4  A    between atoms: C_8  and  O_10 
ROOT
HETATM    1  C   UNK N   1      10.509  -6.467   4.544  0.00  0.00     0.080 A 
HETATM    2  C   UNK N   1      11.478  -5.835   3.752  0.00  0.00     0.040 A 
HETATM    3  C   UNK N   1      11.001  -5.495   2.443  0.00  0.00     0.003 A 
HETATM    4  C   UNK N   1      11.700  -4.831   1.398  0.00  0.00     0.087 A 
HETATM    5  C   UNK N   1      10.993  -4.583   0.187  0.00  0.00     0.134 A 
HETATM    6  F   UNK N   1      11.595  -3.954  -0.854  0.00  0.00    -0.205 F 
HETATM    7  C   UNK N   1       9.653  -4.988   0.033  0.00  0.00     0.045 A 
HETATM    8  C   UNK N   1       8.981  -5.641   1.069  0.00  0.00     0.023 A 
HETATM    9  C   UNK N   1       9.669  -5.877   2.247  0.00  0.00     0.017 A 
HETATM   10  S   UNK N   1       9.125  -6.598   3.633  0.00  0.00    -0.083 SA
ENDROOT
BRANCH   1  11
HETATM   11  C   UNK N   1      10.683  -6.910   5.936  0.00  0.00     0.183 C 
HETATM   12  O   UNK N   1      11.770  -7.312   6.320  0.00  0.00    -0.646 OA
BRANCH  11  13
HETATM   13  O   UNK N   1       9.632  -6.884   6.785  0.00  0.00    -0.772 OA
HETATM   14  H   UNK N   1       9.143  -7.689   7.002  0.00  0.00     0.167 HD
ENDBRANCH  11  13
ENDBRANCH   1  11
BRANCH   4  15
HETATM   15  C   UNK N   1      13.123  -4.379   1.528  0.00  0.00     0.180 C 
HETATM   16  O   UNK N   1      14.040  -5.063   1.105  0.00  0.00    -0.646 OA
BRANCH  15  17
HETATM   17  O   UNK N   1      13.410  -3.205   2.129  0.00  0.00    -0.773 OA
HETATM   18  H   UNK N   1      14.310  -2.994   2.417  0.00  0.00     0.167 HD
ENDBRANCH  15  17
ENDBRANCH   4  15
TORSDOF 4
ENDMDL
MODEL 2
REMARK VINA RESULT:      -6.3      2.750      3.203
REMARK  4 active torsions:
REMARK  status: ('A' for Active; 'I' for Inactive)
REMARK    1  A    between atoms: C_2  and  O_3 
REMARK    2  A    between atoms: C_2  and  C_4 
REMARK    3  A    between atoms: C_7  and  C_8 
REMARK    4  A    between atoms: C_8  and  O_10 
ROOT
HETATM    1  C   UNK N   1      10.418  -4.442   4.881  0.00  0.00     0.080 A 
HETATM    2  C   UNK N   1      10.854  -3.262   4.262  0.00  0.00     0.040 A 
HETATM    3  C   UNK N   1      11.753  -3.499   3.168  0.00  0.00     0.003 A 
HETATM    4  C   UNK N   1      12.363  -2.543   2.311  0.00  0.00     0.087 A 
HETATM    5  C   UNK N   1      13.204  -3.035   1.272  0.00  0.00     0.134 A 
HETATM    6  F   UNK N   1      13.821  -2.183   0.414  0.00  0.00    -0.205 F 
HETATM    7  C   UNK N   1      13.424  -4.416   1.108  0.00  0.00     0.045 A 
HETATM    8  C   UNK N   1      12.817  -5.341   1.960  0.00  0.00     0.023 A 
HETATM    9  C   UNK N   1      11.996  -4.862   2.967  0.00  0.00     0.017 A 
HETATM   10  S   UNK N   1      11.138  -5.716   4.094  0.00  0.00    -0.083 SA
ENDROOT
BRANCH   1  11
HETATM   11  C   UNK N   1       9.476  -4.531   6.007  0.00  0.00     0.183 C 
HETATM   12  O   UNK N   1       9.604  -5.410   6.845  0.00  0.00    -0.646 OA
BRANCH  11  13
HETATM   13  O   UNK N   1       8.459  -3.647   6.103  0.00  0.00    -0.772 OA
HETATM   14  H   UNK N   1       7.944  -3.562   6.917  0.00  0.00     0.167 HD
ENDBRANCH  11  13
ENDBRANCH   1  11
BRANCH   4  15
HETATM   15  C   UNK N   1      12.147  -1.067   2.450  0.00  0.00     0.180 C 
HETATM   16  O   UNK N   1      11.235  -0.509   1.862  0.00  0.00    -0.646 OA
BRANCH  15  17
HETATM   17  O   UNK N   1      12.971  -0.330   3.222  0.00  0.00    -0.773 OA
HETATM   18  H   UNK N   1      12.878  -0.314   4.186  0.00  0.00     0.167 HD
ENDBRANCH  15  17
ENDBRANCH   4  15
TORSDOF 4
ENDMDL
MODEL 3
REMARK VINA RESULT:      -6.2      3.599      5.865
REMARK  4 active torsions:
REMARK  status: ('A' for Active; 'I' for Inactive)
REMARK    1  A    between atoms: C_2  and  O_3 
REMARK    2  A    between atoms: C_2  and  C_4 
REMARK    3  A    between atoms: C_7  and  C_8 
REMARK    4  A    between atoms: C_8  and  O_10 
ROOT
HETATM    1  C   UNK N   1      11.914  -1.474   2.912  0.00  0.00     0.080 A 
HETATM    2  C   UNK N   1      11.111  -2.047   3.908  0.00  0.00     0.040 A 
HETATM    3  C   UNK N   1      11.151  -3.482   3.906  0.00  0.00     0.003 A 
HETATM    4  C   UNK N   1      10.485  -4.380   4.784  0.00  0.00     0.087 A 
HETATM    5  C   UNK N   1      10.708  -5.773   4.593  0.00  0.00     0.134 A 
HETATM    6  F   UNK N   1      10.106  -6.690   5.392  0.00  0.00    -0.205 F 
HETATM    7  C   UNK N   1      11.552  -6.240   3.567  0.00  0.00     0.045 A 
HETATM    8  C   UNK N   1      12.198  -5.344   2.712  0.00  0.00     0.023 A 
HETATM    9  C   UNK N   1      11.984  -3.989   2.903  0.00  0.00     0.017 A 
HETATM   10  S   UNK N   1      12.629  -2.715   2.068  0.00  0.00    -0.083 SA
ENDROOT
BRANCH   1  11
HETATM   11  C   UNK N   1      12.105  -0.035   2.676  0.00  0.00     0.183 C 
HETATM   12  O   UNK N   1      11.139   0.708   2.608  0.00  0.00    -0.646 OA
BRANCH  11  13
HETATM   13  O   UNK N   1      13.352   0.460   2.521  0.00  0.00    -0.772 OA
HETATM   14  H   UNK N   1      14.058  -0.070   2.127  0.00  0.00     0.167 HD
ENDBRANCH  11  13
ENDBRANCH   1  11
BRANCH   4  15
HETATM   15  C   UNK N   1       9.586  -3.921   5.892  0.00  0.00     0.180 C 
HETATM   16  O   UNK N   1       8.417  -3.645   5.677  0.00  0.00    -0.646 OA
BRANCH  15  17
HETATM   17  O   UNK N   1      10.065  -3.795   7.147  0.00  0.00    -0.773 OA
HETATM   18  H   UNK N   1       9.688  -4.299   7.882  0.00  0.00     0.167 HD
ENDBRANCH  15  17
ENDBRANCH   4  15
TORSDOF 4
ENDMDL
MODEL 4
REMARK VINA RESULT:      -6.2      2.926      3.442
REMARK  4 active torsions:
REMARK  status: ('A' for Active; 'I' for Inactive)
REMARK    1  A    between atoms: C_2  and  O_3 
REMARK    2  A    between atoms: C_2  and  C_4 
REMARK    3  A    between atoms: C_7  and  C_8 
REMARK    4  A    between atoms: C_8  and  O_10 
ROOT
HETATM    1  C   UNK N   1      10.516  -5.641   4.775  0.00  0.00     0.080 A 
HETATM    2  C   UNK N   1      10.713  -4.253   4.810  0.00  0.00     0.040 A 
HETATM    3  C   UNK N   1      11.571  -3.781   3.760  0.00  0.00     0.003 A 
HETATM    4  C   UNK N   1      11.963  -2.443   3.482  0.00  0.00     0.087 A 
HETATM    5  C   UNK N   1      12.809  -2.226   2.357  0.00  0.00     0.134 A 
HETATM    6  F   UNK N   1      13.224  -0.977   2.030  0.00  0.00    -0.205 F 
HETATM    7  C   UNK N   1      13.243  -3.301   1.557  0.00  0.00     0.045 A 
HETATM    8  C   UNK N   1      12.850  -4.609   1.846  0.00  0.00     0.023 A 
HETATM    9  C   UNK N   1      12.023  -4.818   2.937  0.00  0.00     0.017 A 
HETATM   10  S   UNK N   1      11.387  -6.240   3.493  0.00  0.00    -0.083 SA
ENDROOT
BRANCH   1  11
HETATM   11  C   UNK N   1       9.671  -6.418   5.695  0.00  0.00     0.183 C 
HETATM   12  O   UNK N   1       9.529  -6.054   6.852  0.00  0.00    -0.646 OA
BRANCH  11  13
HETATM   13  O   UNK N   1       9.062  -7.543   5.260  0.00  0.00    -0.772 OA
HETATM   14  H   UNK N   1       8.361  -7.965   5.775  0.00  0.00     0.167 HD
ENDBRANCH  11  13
ENDBRANCH   1  11
BRANCH   4  15
HETATM   15  C   UNK N   1      11.515  -1.274   4.306  0.00  0.00     0.180 C 
HETATM   16  O   UNK N   1      10.504  -0.655   4.019  0.00  0.00    -0.646 OA
BRANCH  15  17
HETATM   17  O   UNK N   1      12.237  -0.882   5.376  0.00  0.00    -0.773 OA
HETATM   18  H   UNK N   1      12.640  -0.002   5.416  0.00  0.00     0.167 HD
ENDBRANCH  15  17
ENDBRANCH   4  15
TORSDOF 4
ENDMDL
MODEL 5
REMARK VINA RESULT:      -6.1      3.481      4.241
REMARK  4 active torsions:
REMARK  status: ('A' for Active; 'I' for Inactive)
REMARK    1  A    between atoms: C_2  and  O_3 
REMARK    2  A    between atoms: C_2  and  C_4 
REMARK    3  A    between atoms: C_7  and  C_8 
REMARK    4  A    between atoms: C_8  and  O_10 
ROOT
HETATM    1  C   UNK N   1      10.619  -8.343   6.444  0.00  0.00     0.080 A 
HETATM    2  C   UNK N   1      10.188  -7.012   6.529  0.00  0.00     0.040 A 
HETATM    3  C   UNK N   1      10.591  -6.218   5.404  0.00  0.00     0.003 A 
HETATM    4  C   UNK N   1      10.310  -4.847   5.151  0.00  0.00     0.087 A 
HETATM    5  C   UNK N   1      10.804  -4.288   3.938  0.00  0.00     0.134 A 
HETATM    6  F   UNK N   1      10.576  -2.986   3.628  0.00  0.00    -0.205 F 
HETATM    7  C   UNK N   1      11.549  -5.066   3.030  0.00  0.00     0.045 A 
HETATM    8  C   UNK N   1      11.817  -6.410   3.295  0.00  0.00     0.023 A 
HETATM    9  C   UNK N   1      11.331  -6.954   4.472  0.00  0.00     0.017 A 
HETATM   10  S   UNK N   1      11.473  -8.505   5.028  0.00  0.00    -0.083 SA
ENDROOT
BRANCH   1  11
HETATM   11  C   UNK N   1      10.342  -9.406   7.423  0.00  0.00     0.183 C 
HETATM   12  O   UNK N   1      10.268  -9.140   8.612  0.00  0.00    -0.646 OA
BRANCH  11  13
HETATM   13  O   UNK N   1      10.185 -10.680   7.004  0.00  0.00    -0.772 OA
HETATM   14  H   UNK N   1      10.711 -11.400   7.378  0.00  0.00     0.167 HD
ENDBRANCH  11  13
ENDBRANCH   1  11
BRANCH   4  15
HETATM   15  C   UNK N   1       9.515  -3.991   6.089  0.00  0.00     0.180 C 
HETATM   16  O   UNK N   1       8.374  -3.655   5.818  0.00  0.00    -0.646 OA
BRANCH  15  17
HETATM   17  O   UNK N   1      10.061  -3.568   7.249  0.00  0.00    -0.773 OA
HETATM   18  H   UNK N   1       9.977  -2.648   7.538  0.00  0.00     0.167 HD
ENDBRANCH  15  17
ENDBRANCH   4  15
TORSDOF 4
ENDMDL
MODEL 6
REMARK VINA RESULT:      -6.0      5.036      6.492
REMARK  4 active torsions:
REMARK  status: ('A' for Active; 'I' for Inactive)
REMARK    1  A    between atoms: C_2  and  O_3 
REMARK    2  A    between atoms: C_2  and  C_4 
REMARK    3  A    between atoms: C_7  and  C_8 
REMARK    4  A    between atoms: C_8  and  O_10 
ROOT
HETATM    1  C   UNK N   1       9.583  -5.893   5.722  0.00  0.00     0.080 A 
HETATM    2  C   UNK N   1       9.989  -6.771   6.736  0.00  0.00     0.040 A 
HETATM    3  C   UNK N   1      10.226  -8.105   6.264  0.00  0.00     0.003 A 
HETATM    4  C   UNK N   1      10.668  -9.234   7.006  0.00  0.00     0.087 A 
HETATM    5  C   UNK N   1      10.855 -10.455   6.297  0.00  0.00     0.134 A 
HETATM    6  F   UNK N   1      11.274 -11.575   6.939  0.00  0.00    -0.205 F 
HETATM    7  C   UNK N   1      10.604 -10.538   4.914  0.00  0.00     0.045 A 
HETATM    8  C   UNK N   1      10.168  -9.419   4.200  0.00  0.00     0.023 A 
HETATM    9  C   UNK N   1       9.992  -8.231   4.890  0.00  0.00     0.017 A 
HETATM   10  S   UNK N   1       9.516  -6.759   4.305  0.00  0.00    -0.083 SA
ENDROOT
BRANCH   1  11
HETATM   11  C   UNK N   1       9.292  -4.460   5.883  0.00  0.00     0.183 C 
HETATM   12  O   UNK N   1       8.419  -3.932   5.212  0.00  0.00    -0.646 OA
BRANCH  11  13
HETATM   13  O   UNK N   1      10.003  -3.726   6.766  0.00  0.00    -0.772 OA
HETATM   14  H   UNK N   1      10.969  -3.695   6.730  0.00  0.00     0.167 HD
ENDBRANCH  11  13
ENDBRANCH   1  11
BRANCH   4  15
HETATM   15  C   UNK N   1      10.952  -9.183   8.476  0.00  0.00     0.180 C 
HETATM   16  O   UNK N   1      10.045  -9.131   9.290  0.00  0.00    -0.646 OA
BRANCH  15  17
HETATM   17  O   UNK N   1      12.226  -9.181   8.921  0.00  0.00    -0.773 OA
HETATM   18  H   UNK N   1      12.910  -9.714   8.491  0.00  0.00     0.167 HD
ENDBRANCH  15  17
ENDBRANCH   4  15
TORSDOF 4
ENDMDL
MODEL 7
REMARK VINA RESULT:      -6.0      2.501      2.791
REMARK  4 active torsions:
REMARK  status: ('A' for Active; 'I' for Inactive)
REMARK    1  A    between atoms: C_2  and  O_3 
REMARK    2  A    between atoms: C_2  and  C_4 
REMARK    3  A    between atoms: C_7  and  C_8 
REMARK    4  A    between atoms: C_8  and  O_10 
ROOT
HETATM    1  C   UNK N   1      11.061  -7.240   5.094  0.00  0.00     0.080 A 
HETATM    2  C   UNK N   1      11.363  -5.896   4.834  0.00  0.00     0.040 A 
HETATM    3  C   UNK N   1      10.356  -5.233   4.056  0.00  0.00     0.003 A 
HETATM    4  C   UNK N   1      10.324  -3.876   3.633  0.00  0.00     0.087 A 
HETATM    5  C   UNK N   1       9.191  -3.447   2.885  0.00  0.00     0.134 A 
HETATM    6  F   UNK N   1       9.091  -2.166   2.447  0.00  0.00    -0.205 F 
HETATM    7  C   UNK N   1       8.147  -4.339   2.572  0.00  0.00     0.045 A 
HETATM    8  C   UNK N   1       8.195  -5.669   2.994  0.00  0.00     0.023 A 
HETATM    9  C   UNK N   1       9.294  -6.084   3.726  0.00  0.00     0.017 A 
HETATM   10  S   UNK N   1       9.603  -7.576   4.370  0.00  0.00    -0.083 SA
ENDROOT
BRANCH   1  11
HETATM   11  C   UNK N   1      11.878  -8.173   5.885  0.00  0.00     0.183 C 
HETATM   12  O   UNK N   1      11.763  -9.378   5.722  0.00  0.00    -0.646 OA
BRANCH  11  13
HETATM   13  O   UNK N   1      12.745  -7.694   6.803  0.00  0.00    -0.772 OA
HETATM   14  H   UNK N   1      12.696  -7.966   7.730  0.00  0.00     0.167 HD
ENDBRANCH  11  13
ENDBRANCH   1  11
BRANCH   4  15
HETATM   15  C   UNK N   1      11.412  -2.897   3.953  0.00  0.00     0.180 C 
HETATM   16  O   UNK N   1      11.273  -2.073   4.842  0.00  0.00    -0.646 OA
BRANCH  15  17
HETATM   17  O   UNK N   1      12.563  -2.907   3.249  0.00  0.00    -0.773 OA
HETATM   18  H   UNK N   1      13.108  -2.111   3.164  0.00  0.00     0.167 HD
ENDBRANCH  15  17
ENDBRANCH   4  15
TORSDOF 4
ENDMDL
MODEL 8
REMARK VINA RESULT:      -5.9      3.743      5.773
REMARK  4 active torsions:
REMARK  status: ('A' for Active; 'I' for Inactive)
REMARK    1  A    between atoms: C_2  and  O_3 
REMARK    2  A    between atoms: C_2  and  C_4 
REMARK    3  A    between atoms: C_7  and  C_8 
REMARK    4  A    between atoms: C_8  and  O_10 
ROOT
HETATM    1  C   UNK N   1       9.777  -1.788   2.058  0.00  0.00     0.080 A 
HETATM    2  C   UNK N   1       9.551  -2.389   3.304  0.00  0.00     0.040 A 
HETATM    3  C   UNK N   1      10.286  -3.609   3.482  0.00  0.00     0.003 A 
HETATM    4  C   UNK N   1      10.314  -4.459   4.621  0.00  0.00     0.087 A 
HETATM    5  C   UNK N   1      11.150  -5.610   4.561  0.00  0.00     0.134 A 
HETATM    6  F   UNK N   1      11.229  -6.468   5.610  0.00  0.00    -0.205 F 
HETATM    7  C   UNK N   1      11.914  -5.895   3.412  0.00  0.00     0.045 A 
HETATM    8  C   UNK N   1      11.873  -5.050   2.302  0.00  0.00     0.023 A 
HETATM    9  C   UNK N   1      11.063  -3.928   2.363  0.00  0.00     0.017 A 
HETATM   10  S   UNK N   1      10.840  -2.753   1.221  0.00  0.00    -0.083 SA
ENDROOT
BRANCH   1  11
HETATM   11  C   UNK N   1       9.194  -0.521   1.591  0.00  0.00     0.183 C 
HETATM   12  O   UNK N   1       9.705   0.082   0.660  0.00  0.00    -0.646 OA
BRANCH  11  13
HETATM   13  O   UNK N   1       8.101  -0.018   2.204  0.00  0.00    -0.772 OA
HETATM   14  H   UNK N   1       7.571   0.679   1.793  0.00  0.00     0.167 HD
ENDBRANCH  11  13
ENDBRANCH   1  11
BRANCH   4  15
HETATM   15  C   UNK N   1       9.523  -4.185   5.863  0.00  0.00     0.180 C 
HETATM   16  O   UNK N   1       8.310  -4.316   5.876  0.00  0.00    -0.646 OA
BRANCH  15  17
HETATM   17  O   UNK N   1      10.145  -3.776   6.988  0.00  0.00    -0.773 OA
HETATM   18  H   UNK N   1      11.020  -3.362   6.957  0.00  0.00     0.167 HD
ENDBRANCH  15  17
ENDBRANCH   4  15
TORSDOF 4
ENDMDL
MODEL 9
REMARK VINA RESULT:      -5.5      3.218      5.123
REMARK  4 active torsions:
REMARK  status: ('A' for Active; 'I' for Inactive)
REMARK    1  A    between atoms: C_2  and  O_3 
REMARK    2  A    between atoms: C_2  and  C_4 
REMARK    3  A    between atoms: C_7  and  C_8 
REMARK    4  A    between atoms: C_8  and  O_10 
ROOT
HETATM    1  C   UNK N   1      10.881  -1.971   3.685  0.00  0.00     0.080 A 
HETATM    2  C   UNK N   1      10.802  -3.101   4.511  0.00  0.00     0.040 A 
HETATM    3  C   UNK N   1       9.992  -4.147   3.957  0.00  0.00     0.003 A 
HETATM    4  C   UNK N   1       9.717  -5.429   4.507  0.00  0.00     0.087 A 
HETATM    5  C   UNK N   1       8.897  -6.309   3.744  0.00  0.00     0.134 A 
HETATM    6  F   UNK N   1       8.590  -7.548   4.205  0.00  0.00    -0.205 F 
HETATM    7  C   UNK N   1       8.375  -5.917   2.496  0.00  0.00     0.045 A 
HETATM    8  C   UNK N   1       8.654  -4.654   1.972  0.00  0.00     0.023 A 
HETATM    9  C   UNK N   1       9.456  -3.801   2.711  0.00  0.00     0.017 A 
HETATM   10  S   UNK N   1       9.965  -2.274   2.331  0.00  0.00    -0.083 SA
ENDROOT
BRANCH   1  11
HETATM   11  C   UNK N   1      11.653  -0.749   3.960  0.00  0.00     0.183 C 
HETATM   12  O   UNK N   1      11.253   0.056   4.786  0.00  0.00    -0.646 OA
BRANCH  11  13
HETATM   13  O   UNK N   1      12.800  -0.514   3.286  0.00  0.00    -0.772 OA
HETATM   14  H   UNK N   1      13.075  -1.079   2.551  0.00  0.00     0.167 HD
ENDBRANCH  11  13
ENDBRANCH   1  11
BRANCH   4  15
HETATM   15  C   UNK N   1      10.260  -5.884   5.827  0.00  0.00     0.180 C 
HETATM   16  O   UNK N   1      11.277  -6.555   5.889  0.00  0.00    -0.646 OA
BRANCH  15  17
HETATM   17  O   UNK N   1       9.620  -5.564   6.971  0.00  0.00    -0.773 OA
HETATM   18  H   UNK N   1       9.851  -4.768   7.471  0.00  0.00     0.167 HD
ENDBRANCH  15  17
ENDBRANCH   4  15
TORSDOF 4
ENDMDL
