MODEL 1
REMARK VINA RESULT:      -7.4      0.000      0.000
REMARK  3 active torsions:
REMARK  status: ('A' for Active; 'I' for Inactive)
REMARK    1  A    between atoms: C_2  and  O_3 
REMARK    2  A    between atoms: C_2  and  C_4 
REMARK    3  A    between atoms: C_18  and  O_19 
ROOT
HETATM    1  C   UNK N   1      10.210  -4.699   4.962  0.00  0.00     0.110 A 
HETATM    2  C   UNK N   1      10.103  -6.102   4.824  0.00  0.00     0.136 A 
HETATM    3  F   UNK N   1       9.347  -6.835   5.682  0.00  0.00    -0.205 F 
HETATM    4  C   UNK N   1      10.764  -6.766   3.792  0.00  0.00     0.044 A 
HETATM    5  C   UNK N   1      11.550  -6.058   2.889  0.00  0.00     0.016 A 
HETATM    6  C   UNK N   1      11.677  -4.669   3.000  0.00  0.00     0.010 A 
HETATM    7  C   UNK N   1      11.004  -3.976   4.031  0.00  0.00     0.105 A 
HETATM    8  O   UNK N   1      11.116  -2.626   4.129  0.00  0.00    -0.308 OA
HETATM    9  C   UNK N   1      11.800  -1.854   3.246  0.00  0.00     0.085 A 
HETATM   10  C   UNK N   1      11.791  -0.460   3.396  0.00  0.00     0.038 A 
HETATM   11  C   UNK N   1      12.473   0.351   2.482  0.00  0.00     0.003 A 
HETATM   12  C   UNK N   1      13.171  -0.226   1.418  0.00  0.00     0.001 A 
HETATM   13  C   UNK N   1      13.195  -1.613   1.268  0.00  0.00     0.013 A 
HETATM   14  C   UNK N   1      12.512  -2.434   2.180  0.00  0.00     0.009 A 
HETATM   15  C   UNK N   1      12.544  -3.930   2.007  0.00  0.00     0.190 A 
ENDROOT
BRANCH   1  16
HETATM   16  C   UNK N   1       9.489  -3.999   6.070  0.00  0.00     0.182 C 
HETATM   17  O   UNK N   1       8.299  -3.733   5.958  0.00  0.00    -0.646 OA
BRANCH  16  18
HETATM   18  O   UNK N   1      10.136  -3.645   7.199  0.00  0.00    -0.772 OA
HETATM   19  H   UNK N   1      10.751  -2.897   7.210  0.00  0.00     0.167 HD
ENDBRANCH  16  18
ENDBRANCH   1  16
BRANCH  15  20
HETATM   20  O   UNK N   1      13.869  -4.392   2.093  0.00  0.00    -0.386 OA
HETATM   21  H   UNK N   1      14.154  -4.301   3.042  0.00  0.00     0.210 HD
ENDBRANCH  15  20
TORSDOF 3
ENDMDL
MODEL 2
REMARK VINA RESULT:      -7.3      2.495      5.111
REMARK  3 active torsions:
REMARK  status: ('A' for Active; 'I' for Inactive)
REMARK    1  A    between atoms: C_2  and  O_3 
REMARK    2  A    between atoms: C_2  and  C_4 
REMARK    3  A    between atoms: C_18  and  O_19 
ROOT
HETATM    1  C   UNK N   1      12.207  -1.559   3.598  0.00  0.00     0.110 A 
HETATM    2  C   UNK N   1      13.005  -1.096   2.527  0.00  0.00     0.136 A 
HETATM    3  F   UNK N   1      13.404   0.200   2.459  0.00  0.00    -0.205 F 
HETATM    4  C   UNK N   1      13.413  -1.967   1.518  0.00  0.00     0.044 A 
HETATM    5  C   UNK N   1      13.029  -3.303   1.544  0.00  0.00     0.016 A 
HETATM    6  C   UNK N   1      12.238  -3.791   2.589  0.00  0.00     0.010 A 
HETATM    7  C   UNK N   1      11.826  -2.928   3.629  0.00  0.00     0.105 A 
HETATM    8  O   UNK N   1      11.070  -3.406   4.651  0.00  0.00    -0.308 OA
HETATM    9  C   UNK N   1      10.717  -4.710   4.790  0.00  0.00     0.085 A 
HETATM   10  C   UNK N   1       9.998  -5.113   5.924  0.00  0.00     0.038 A 
HETATM   11  C   UNK N   1       9.645  -6.457   6.093  0.00  0.00     0.003 A 
HETATM   12  C   UNK N   1      10.004  -7.402   5.129  0.00  0.00     0.001 A 
HETATM   13  C   UNK N   1      10.710  -7.007   3.991  0.00  0.00     0.013 A 
HETATM   14  C   UNK N   1      11.069  -5.661   3.815  0.00  0.00     0.009 A 
HETATM   15  C   UNK N   1      11.832  -5.247   2.584  0.00  0.00     0.190 A 
ENDROOT
BRANCH   1  16
HETATM   16  C   UNK N   1      11.783  -0.615   4.678  0.00  0.00     0.182 C 
HETATM   17  O   UNK N   1      10.982   0.278   4.435  0.00  0.00    -0.646 OA
BRANCH  16  18
HETATM   18  O   UNK N   1      12.280  -0.727   5.927  0.00  0.00    -0.772 OA
HETATM   19  H   UNK N   1      13.211  -0.946   6.078  0.00  0.00     0.167 HD
ENDBRANCH  16  18
ENDBRANCH   1  16
BRANCH  15  20
HETATM   20  O   UNK N   1      11.072  -5.528   1.435  0.00  0.00    -0.386 OA
HETATM   21  H   UNK N   1      11.270  -6.466   1.171  0.00  0.00     0.210 HD
ENDBRANCH  15  20
TORSDOF 3
ENDMDL
MODEL 3
REMARK VINA RESULT:      -7.2      2.393      2.639
REMARK  3 active torsions:
REMARK  status: ('A' for Active; 'I' for Inactive)
REMARK    1  A    between atoms: C_2  and  O_3 
REMARK    2  A    between atoms: C_2  and  C_4 
REMARK    3  A    between atoms: C_18  and  O_19 
ROOT
HETATM    1  C   UNK N   1       9.850  -4.948   4.425  0.00  0.00     0.110 A 
HETATM    2  C   UNK N   1      10.382  -5.854   5.371  0.00  0.00     0.136 A 
HETATM    3  F   UNK N   1       9.761  -6.073   6.559  0.00  0.00    -0.205 F 
HETATM    4  C   UNK N   1      11.557  -6.555   5.099  0.00  0.00     0.044 A 
HETATM    5  C   UNK N   1      12.228  -6.364   3.897  0.00  0.00     0.016 A 
HETATM    6  C   UNK N   1      11.728  -5.473   2.942  0.00  0.00     0.010 A 
HETATM    7  C   UNK N   1      10.532  -4.764   3.192  0.00  0.00     0.105 A 
HETATM    8  O   UNK N   1      10.039  -3.910   2.257  0.00  0.00    -0.308 OA
HETATM    9  C   UNK N   1      10.591  -3.724   1.031  0.00  0.00     0.085 A 
HETATM   10  C   UNK N   1       9.960  -2.876   0.110  0.00  0.00     0.038 A 
HETATM   11  C   UNK N   1      10.506  -2.690  -1.165  0.00  0.00     0.003 A 
HETATM   12  C   UNK N   1      11.685  -3.347  -1.525  0.00  0.00     0.001 A 
HETATM   13  C   UNK N   1      12.326  -4.184  -0.611  0.00  0.00     0.013 A 
HETATM   14  C   UNK N   1      11.785  -4.377   0.670  0.00  0.00     0.009 A 
HETATM   15  C   UNK N   1      12.485  -5.284   1.648  0.00  0.00     0.190 A 
ENDROOT
BRANCH   1  16
HETATM   16  C   UNK N   1       8.586  -4.208   4.726  0.00  0.00     0.182 C 
HETATM   17  O   UNK N   1       8.498  -3.528   5.740  0.00  0.00    -0.646 OA
BRANCH  16  18
HETATM   18  O   UNK N   1       7.526  -4.284   3.895  0.00  0.00    -0.772 OA
HETATM   19  H   UNK N   1       6.779  -4.870   4.089  0.00  0.00     0.167 HD
ENDBRANCH  16  18
ENDBRANCH   1  16
BRANCH  15  20
HETATM   20  O   UNK N   1      13.774  -4.791   1.917  0.00  0.00    -0.386 OA
HETATM   21  H   UNK N   1      13.796  -4.526   2.875  0.00  0.00     0.210 HD
ENDBRANCH  15  20
TORSDOF 3
ENDMDL
MODEL 4
REMARK VINA RESULT:      -6.6      4.826      7.165
REMARK  3 active torsions:
REMARK  status: ('A' for Active; 'I' for Inactive)
REMARK    1  A    between atoms: C_2  and  O_3 
REMARK    2  A    between atoms: C_2  and  C_4 
REMARK    3  A    between atoms: C_18  and  O_19 
ROOT
HETATM    1  C   UNK N   1      11.408 -11.160   5.551  0.00  0.00     0.110 A 
HETATM    2  C   UNK N   1      11.953 -11.814   6.681  0.00  0.00     0.136 A 
HETATM    3  F   UNK N   1      12.426 -13.084   6.596  0.00  0.00    -0.205 F 
HETATM    4  C   UNK N   1      12.027 -11.161   7.911  0.00  0.00     0.044 A 
HETATM    5  C   UNK N   1      11.555  -9.860   8.046  0.00  0.00     0.016 A 
HETATM    6  C   UNK N   1      11.009  -9.188   6.948  0.00  0.00     0.010 A 
HETATM    7  C   UNK N   1      10.938  -9.827   5.690  0.00  0.00     0.105 A 
HETATM    8  O   UNK N   1      10.421  -9.168   4.620  0.00  0.00    -0.308 OA
HETATM    9  C   UNK N   1      10.009  -7.875   4.650  0.00  0.00     0.085 A 
HETATM   10  C   UNK N   1       9.562  -7.264   3.470  0.00  0.00     0.038 A 
HETATM   11  C   UNK N   1       9.153  -5.926   3.480  0.00  0.00     0.003 A 
HETATM   12  C   UNK N   1       9.186  -5.192   4.669  0.00  0.00     0.001 A 
HETATM   13  C   UNK N   1       9.620  -5.795   5.851  0.00  0.00     0.013 A 
HETATM   14  C   UNK N   1      10.032  -7.138   5.849  0.00  0.00     0.009 A 
HETATM   15  C   UNK N   1      10.499  -7.777   7.130  0.00  0.00     0.190 A 
ENDROOT
BRANCH   1  16
HETATM   16  C   UNK N   1      11.342 -11.870   4.236  0.00  0.00     0.182 C 
HETATM   17  O   UNK N   1      12.364 -12.299   3.716  0.00  0.00    -0.646 OA
BRANCH  16  18
HETATM   18  O   UNK N   1      10.163 -12.041   3.603  0.00  0.00    -0.772 OA
HETATM   19  H   UNK N   1       9.979 -11.600   2.761  0.00  0.00     0.167 HD
ENDBRANCH  16  18
ENDBRANCH   1  16
BRANCH  15  20
HETATM   20  O   UNK N   1       9.458  -7.764   8.076  0.00  0.00    -0.386 OA
HETATM   21  H   UNK N   1       8.862  -7.001   7.851  0.00  0.00     0.210 HD
ENDBRANCH  15  20
TORSDOF 3
ENDMDL
MODEL 5
REMARK VINA RESULT:      -6.5      3.587      6.121
REMARK  3 active torsions:
REMARK  status: ('A' for Active; 'I' for Inactive)
REMARK    1  A    between atoms: C_2  and  O_3 
REMARK    2  A    between atoms: C_2  and  C_4 
REMARK    3  A    between atoms: C_18  and  O_19 
ROOT
HETATM    1  C   UNK N   1      12.219  -4.377   0.644  0.00  0.00     0.110 A 
HETATM    2  C   UNK N   1      11.664  -3.957  -0.587  0.00  0.00     0.136 A 
HETATM    3  F   UNK N   1      12.415  -3.296  -1.505  0.00  0.00    -0.205 F 
HETATM    4  C   UNK N   1      10.330  -4.225  -0.892  0.00  0.00     0.044 A 
HETATM    5  C   UNK N   1       9.522  -4.899   0.017  0.00  0.00     0.016 A 
HETATM    6  C   UNK N   1      10.041  -5.325   1.244  0.00  0.00     0.010 A 
HETATM    7  C   UNK N   1      11.394  -5.076   1.566  0.00  0.00     0.105 A 
HETATM    8  O   UNK N   1      11.900  -5.503   2.751  0.00  0.00    -0.308 OA
HETATM    9  C   UNK N   1      11.201  -6.232   3.659  0.00  0.00     0.085 A 
HETATM   10  C   UNK N   1      11.842  -6.689   4.819  0.00  0.00     0.038 A 
HETATM   11  C   UNK N   1      11.141  -7.459   5.754  0.00  0.00     0.003 A 
HETATM   12  C   UNK N   1       9.797  -7.772   5.537  0.00  0.00     0.001 A 
HETATM   13  C   UNK N   1       9.148  -7.312   4.390  0.00  0.00     0.013 A 
HETATM   14  C   UNK N   1       9.845  -6.540   3.446  0.00  0.00     0.009 A 
HETATM   15  C   UNK N   1       9.134  -6.050   2.212  0.00  0.00     0.190 A 
ENDROOT
BRANCH   1  16
HETATM   16  C   UNK N   1      13.653  -4.089   0.955  0.00  0.00     0.182 C 
HETATM   17  O   UNK N   1      14.540  -4.760   0.443  0.00  0.00    -0.646 OA
BRANCH  16  18
HETATM   18  O   UNK N   1      13.990  -3.097   1.805  0.00  0.00    -0.772 OA
HETATM   19  H   UNK N   1      14.135  -2.194   1.487  0.00  0.00     0.167 HD
ENDBRANCH  16  18
ENDBRANCH   1  16
BRANCH  15  20
HETATM   20  O   UNK N   1       8.063  -5.216   2.578  0.00  0.00    -0.386 OA
HETATM   21  H   UNK N   1       7.871  -4.622   1.803  0.00  0.00     0.210 HD
ENDBRANCH  15  20
TORSDOF 3
ENDMDL
MODEL 6
REMARK VINA RESULT:      -6.5      7.040      9.813
REMARK  3 active torsions:
REMARK  status: ('A' for Active; 'I' for Inactive)
REMARK    1  A    between atoms: C_2  and  O_3 
REMARK    2  A    between atoms: C_2  and  C_4 
REMARK    3  A    between atoms: C_18  and  O_19 
ROOT
HETATM    1  C   UNK N   1      11.168 -10.104   7.007  0.00  0.00     0.110 A 
HETATM    2  C   UNK N   1      10.730  -9.415   5.853  0.00  0.00     0.136 A 
HETATM    3  F   UNK N   1       9.865  -8.372   5.945  0.00  0.00    -0.205 F 
HETATM    4  C   UNK N   1      11.189  -9.785   4.589  0.00  0.00     0.044 A 
HETATM    5  C   UNK N   1      12.075 -10.846   4.446  0.00  0.00     0.016 A 
HETATM    6  C   UNK N   1      12.525 -11.550   5.568  0.00  0.00     0.010 A 
HETATM    7  C   UNK N   1      12.083 -11.181   6.858  0.00  0.00     0.105 A 
HETATM    8  O   UNK N   1      12.532 -11.855   7.949  0.00  0.00    -0.308 OA
HETATM    9  C   UNK N   1      13.453 -12.851   7.902  0.00  0.00     0.085 A 
HETATM   10  C   UNK N   1      13.905 -13.431   9.095  0.00  0.00     0.038 A 
HETATM   11  C   UNK N   1      14.870 -14.445   9.065  0.00  0.00     0.003 A 
HETATM   12  C   UNK N   1      15.384 -14.886   7.843  0.00  0.00     0.001 A 
HETATM   13  C   UNK N   1      14.931 -14.322   6.649  0.00  0.00     0.013 A 
HETATM   14  C   UNK N   1      13.963 -13.304   6.671  0.00  0.00     0.009 A 
HETATM   15  C   UNK N   1      13.483 -12.702   5.377  0.00  0.00     0.190 A 
ENDROOT
BRANCH   1  16
HETATM   16  C   UNK N   1      10.673  -9.692   8.357  0.00  0.00     0.182 C 
HETATM   17  O   UNK N   1      11.446  -9.209   9.175  0.00  0.00    -0.646 OA
BRANCH  16  18
HETATM   18  O   UNK N   1       9.377  -9.852   8.696  0.00  0.00    -0.772 OA
HETATM   19  H   UNK N   1       9.127 -10.289   9.523  0.00  0.00     0.167 HD
ENDBRANCH  16  18
ENDBRANCH   1  16
BRANCH  15  20
HETATM   20  O   UNK N   1      12.882 -13.696   4.583  0.00  0.00    -0.386 OA
HETATM   21  H   UNK N   1      11.916 -13.472   4.510  0.00  0.00     0.210 HD
ENDBRANCH  15  20
TORSDOF 3
ENDMDL
MODEL 7
REMARK VINA RESULT:      -6.3      3.631      5.822
REMARK  3 active torsions:
REMARK  status: ('A' for Active; 'I' for Inactive)
REMARK    1  A    between atoms: C_2  and  O_3 
REMARK    2  A    between atoms: C_2  and  C_4 
REMARK    3  A    between atoms: C_18  and  O_19 
ROOT
HETATM    1  C   UNK N   1       8.975   0.352   2.780  0.00  0.00     0.110 A 
HETATM    2  C   UNK N   1       9.696   1.470   3.261  0.00  0.00     0.136 A 
HETATM    3  F   UNK N   1       9.234   2.734   3.077  0.00  0.00    -0.205 F 
HETATM    4  C   UNK N   1      10.897   1.297   3.947  0.00  0.00     0.044 A 
HETATM    5  C   UNK N   1      11.410   0.023   4.159  0.00  0.00     0.016 A 
HETATM    6  C   UNK N   1      10.721  -1.103   3.694  0.00  0.00     0.010 A 
HETATM    7  C   UNK N   1       9.495  -0.950   3.008  0.00  0.00     0.105 A 
HETATM    8  O   UNK N   1       8.820  -2.044   2.571  0.00  0.00    -0.308 OA
HETATM    9  C   UNK N   1       9.213  -3.323   2.802  0.00  0.00     0.085 A 
HETATM   10  C   UNK N   1       8.402  -4.383   2.372  0.00  0.00     0.038 A 
HETATM   11  C   UNK N   1       8.783  -5.707   2.621  0.00  0.00     0.003 A 
HETATM   12  C   UNK N   1       9.975  -5.978   3.296  0.00  0.00     0.001 A 
HETATM   13  C   UNK N   1      10.794  -4.929   3.719  0.00  0.00     0.013 A 
HETATM   14  C   UNK N   1      10.418  -3.598   3.473  0.00  0.00     0.009 A 
HETATM   15  C   UNK N   1      11.309  -2.474   3.935  0.00  0.00     0.190 A 
ENDROOT
BRANCH   1  16
HETATM   16  C   UNK N   1       7.684   0.552   2.052  0.00  0.00     0.182 C 
HETATM   17  O   UNK N   1       7.665   0.574   0.828  0.00  0.00    -0.646 OA
BRANCH  16  18
HETATM   18  O   UNK N   1       6.528   0.717   2.728  0.00  0.00    -0.772 OA
HETATM   19  H   UNK N   1       5.672   0.640   2.282  0.00  0.00     0.167 HD
ENDBRANCH  16  18
ENDBRANCH   1  16
BRANCH  15  20
HETATM   20  O   UNK N   1      12.564  -2.572   3.308  0.00  0.00    -0.386 OA
HETATM   21  H   UNK N   1      12.817  -3.534   3.301  0.00  0.00     0.210 HD
ENDBRANCH  15  20
TORSDOF 3
ENDMDL
MODEL 8
REMARK VINA RESULT:      -6.2      2.024      2.822
REMARK  3 active torsions:
REMARK  status: ('A' for Active; 'I' for Inactive)
REMARK    1  A    between atoms: C_2  and  O_3 
REMARK    2  A    between atoms: C_2  and  C_4 
REMARK    3  A    between atoms: C_18  and  O_19 
ROOT
HETATM    1  C   UNK N   1      10.022  -3.724   3.974  0.00  0.00     0.110 A 
HETATM    2  C   UNK N   1      10.887  -4.799   3.664  0.00  0.00     0.136 A 
HETATM    3  F   UNK N   1      10.604  -6.065   4.066  0.00  0.00    -0.205 F 
HETATM    4  C   UNK N   1      12.049  -4.584   2.924  0.00  0.00     0.044 A 
HETATM    5  C   UNK N   1      12.380  -3.305   2.490  0.00  0.00     0.016 A 
HETATM    6  C   UNK N   1      11.547  -2.221   2.782  0.00  0.00     0.010 A 
HETATM    7  C   UNK N   1      10.358  -2.420   3.519  0.00  0.00     0.105 A 
HETATM    8  O   UNK N   1       9.541  -1.369   3.789  0.00  0.00    -0.308 OA
HETATM    9  C   UNK N   1       9.753  -0.105   3.339  0.00  0.00     0.085 A 
HETATM   10  C   UNK N   1       8.807   0.893   3.612  0.00  0.00     0.038 A 
HETATM   11  C   UNK N   1       9.001   2.195   3.137  0.00  0.00     0.003 A 
HETATM   12  C   UNK N   1      10.141   2.507   2.392  0.00  0.00     0.001 A 
HETATM   13  C   UNK N   1      11.093   1.521   2.125  0.00  0.00     0.013 A 
HETATM   14  C   UNK N   1      10.905   0.212   2.597  0.00  0.00     0.009 A 
HETATM   15  C   UNK N   1      11.939  -0.843   2.302  0.00  0.00     0.190 A 
ENDROOT
BRANCH   1  16
HETATM   16  C   UNK N   1       8.775  -3.970   4.762  0.00  0.00     0.182 C 
HETATM   17  O   UNK N   1       7.794  -4.465   4.222  0.00  0.00    -0.646 OA
BRANCH  16  18
HETATM   18  O   UNK N   1       8.709  -3.645   6.069  0.00  0.00    -0.772 OA
HETATM   19  H   UNK N   1       8.835  -4.314   6.758  0.00  0.00     0.167 HD
ENDBRANCH  16  18
ENDBRANCH   1  16
BRANCH  15  20
HETATM   20  O   UNK N   1      13.173  -0.473   2.867  0.00  0.00    -0.386 OA
HETATM   21  H   UNK N   1      13.641   0.103   2.205  0.00  0.00     0.210 HD
ENDBRANCH  15  20
TORSDOF 3
ENDMDL
MODEL 9
REMARK VINA RESULT:      -6.2      2.314      2.525
REMARK  3 active torsions:
REMARK  status: ('A' for Active; 'I' for Inactive)
REMARK    1  A    between atoms: C_2  and  O_3 
REMARK    2  A    between atoms: C_2  and  C_4 
REMARK    3  A    between atoms: C_18  and  O_19 
ROOT
HETATM    1  C   UNK N   1       9.507  -4.557   4.602  0.00  0.00     0.110 A 
HETATM    2  C   UNK N   1       8.831  -5.682   4.075  0.00  0.00     0.136 A 
HETATM    3  F   UNK N   1       8.661  -6.807   4.816  0.00  0.00    -0.205 F 
HETATM    4  C   UNK N   1       8.311  -5.656   2.782  0.00  0.00     0.044 A 
HETATM    5  C   UNK N   1       8.460  -4.526   1.986  0.00  0.00     0.016 A 
HETATM    6  C   UNK N   1       9.126  -3.398   2.477  0.00  0.00     0.010 A 
HETATM    7  C   UNK N   1       9.648  -3.399   3.790  0.00  0.00     0.105 A 
HETATM    8  O   UNK N   1      10.280  -2.298   4.271  0.00  0.00    -0.308 OA
HETATM    9  C   UNK N   1      10.402  -1.131   3.588  0.00  0.00     0.085 A 
HETATM   10  C   UNK N   1      11.008  -0.028   4.206  0.00  0.00     0.038 A 
HETATM   11  C   UNK N   1      11.122   1.188   3.523  0.00  0.00     0.003 A 
HETATM   12  C   UNK N   1      10.635   1.307   2.218  0.00  0.00     0.001 A 
HETATM   13  C   UNK N   1      10.041   0.211   1.591  0.00  0.00     0.013 A 
HETATM   14  C   UNK N   1       9.922  -1.013   2.271  0.00  0.00     0.009 A 
HETATM   15  C   UNK N   1       9.277  -2.188   1.584  0.00  0.00     0.190 A 
ENDROOT
BRANCH   1  16
HETATM   16  C   UNK N   1      10.053  -4.596   5.993  0.00  0.00     0.182 C 
HETATM   17  O   UNK N   1      10.753  -5.534   6.354  0.00  0.00    -0.646 OA
BRANCH  16  18
HETATM   18  O   UNK N   1       9.779  -3.609   6.871  0.00  0.00    -0.772 OA
HETATM   19  H   UNK N   1       9.138  -3.738   7.585  0.00  0.00     0.167 HD
ENDBRANCH  16  18
ENDBRANCH   1  16
BRANCH  15  20
HETATM   20  O   UNK N   1      10.012  -2.531   0.435  0.00  0.00    -0.386 OA
HETATM   21  H   UNK N   1      10.841  -1.982   0.439  0.00  0.00     0.210 HD
ENDBRANCH  15  20
TORSDOF 3
ENDMDL
