MODEL 1
REMARK VINA RESULT:      -6.1      0.000      0.000
REMARK  6 active torsions:
REMARK  status: ('A' for Active; 'I' for Inactive)
REMARK    1  A    between atoms: C_2  and  O_3 
REMARK    2  A    between atoms: O_3  and  C_4 
REMARK    3  A    between atoms: C_5  and  C_6 
REMARK    4  A    between atoms: C_6  and  O_8 
REMARK    5  A    between atoms: C_13  and  C_14 
REMARK    6  A    between atoms: C_14  and  O_16 
ROOT
HETATM    1  C   UNK N   1      10.952  -4.576   4.025  0.00  0.00     0.105 A 
HETATM    2  C   UNK N   1      11.645  -5.530   3.236  0.00  0.00     0.072 A 
HETATM    3  C   UNK N   1      11.686  -6.868   3.662  0.00  0.00     0.024 A 
HETATM    4  C   UNK N   1      11.054  -7.260   4.837  0.00  0.00     0.044 A 
HETATM    5  C   UNK N   1      10.355  -6.335   5.608  0.00  0.00     0.136 A 
HETATM    6  F   UNK N   1       9.735  -6.769   6.735  0.00  0.00    -0.205 F 
HETATM    7  C   UNK N   1      10.282  -4.981   5.211  0.00  0.00     0.110 A 
ENDROOT
BRANCH   2   8
HETATM    8  C   UNK N   1      12.325  -5.153   1.960  0.00  0.00     0.179 C 
HETATM    9  O   UNK N   1      11.682  -5.083   0.922  0.00  0.00    -0.646 OA
BRANCH   8  10
HETATM   10  O   UNK N   1      13.641  -4.852   1.942  0.00  0.00    -0.773 OA
HETATM   11  H   UNK N   1      14.139  -4.828   1.111  0.00  0.00     0.167 HD
ENDBRANCH   8  10
ENDBRANCH   2   8
BRANCH   1  12
HETATM   12  O   UNK N   1      10.956  -3.272   3.658  0.00  0.00    -0.349 OA
BRANCH  12  13
HETATM   13  C   UNK N   1      11.966  -2.424   4.081  0.00  0.00     0.171 C 
HETATM   14  C   UNK N   1      12.491  -1.610   2.910  0.00  0.00     0.034 C 
ENDBRANCH  12  13
ENDBRANCH   1  12
BRANCH   7  15
HETATM   15  C   UNK N   1       9.489  -4.008   6.027  0.00  0.00     0.182 C 
HETATM   16  O   UNK N   1       8.406  -3.605   5.627  0.00  0.00    -0.646 OA
BRANCH  15  17
HETATM   17  O   UNK N   1       9.984  -3.519   7.185  0.00  0.00    -0.772 OA
HETATM   18  H   UNK N   1       9.813  -3.958   8.029  0.00  0.00     0.167 HD
ENDBRANCH  15  17
ENDBRANCH   7  15
TORSDOF 6
ENDMDL
MODEL 2
REMARK VINA RESULT:      -6.0      2.259      4.345
REMARK  6 active torsions:
REMARK  status: ('A' for Active; 'I' for Inactive)
REMARK    1  A    between atoms: C_2  and  O_3 
REMARK    2  A    between atoms: O_3  and  C_4 
REMARK    3  A    between atoms: C_5  and  C_6 
REMARK    4  A    between atoms: C_6  and  O_8 
REMARK    5  A    between atoms: C_13  and  C_14 
REMARK    6  A    between atoms: C_14  and  O_16 
ROOT
HETATM    1  C   UNK N   1      11.059  -3.441   3.978  0.00  0.00     0.105 A 
HETATM    2  C   UNK N   1      10.548  -4.482   4.796  0.00  0.00     0.072 A 
HETATM    3  C   UNK N   1      10.875  -5.814   4.492  0.00  0.00     0.024 A 
HETATM    4  C   UNK N   1      11.694  -6.115   3.408  0.00  0.00     0.044 A 
HETATM    5  C   UNK N   1      12.216  -5.099   2.612  0.00  0.00     0.136 A 
HETATM    6  F   UNK N   1      13.029  -5.440   1.579  0.00  0.00    -0.205 F 
HETATM    7  C   UNK N   1      11.919  -3.747   2.888  0.00  0.00     0.110 A 
ENDROOT
BRANCH   2   8
HETATM    8  C   UNK N   1       9.677  -4.200   5.977  0.00  0.00     0.179 C 
HETATM    9  O   UNK N   1      10.068  -4.471   7.104  0.00  0.00    -0.646 OA
BRANCH   8  10
HETATM   10  O   UNK N   1       8.469  -3.616   5.821  0.00  0.00    -0.773 OA
HETATM   11  H   UNK N   1       7.895  -3.440   6.580  0.00  0.00     0.167 HD
ENDBRANCH   8  10
ENDBRANCH   2   8
BRANCH   1  12
HETATM   12  O   UNK N   1      10.702  -2.158   4.224  0.00  0.00    -0.349 OA
BRANCH  12  13
HETATM   13  C   UNK N   1       9.755  -1.527   3.434  0.00  0.00     0.171 C 
HETATM   14  C   UNK N   1       9.963  -0.022   3.468  0.00  0.00     0.034 C 
ENDBRANCH  12  13
ENDBRANCH   1  12
BRANCH   7  15
HETATM   15  C   UNK N   1      12.525  -2.664   2.050  0.00  0.00     0.182 C 
HETATM   16  O   UNK N   1      12.332  -2.637   0.843  0.00  0.00    -0.646 OA
BRANCH  15  17
HETATM   17  O   UNK N   1      13.338  -1.740   2.606  0.00  0.00    -0.772 OA
HETATM   18  H   UNK N   1      14.245  -1.618   2.295  0.00  0.00     0.167 HD
ENDBRANCH  15  17
ENDBRANCH   7  15
TORSDOF 6
ENDMDL
MODEL 3
REMARK VINA RESULT:      -5.9      1.394      1.479
REMARK  6 active torsions:
REMARK  status: ('A' for Active; 'I' for Inactive)
REMARK    1  A    between atoms: C_2  and  O_3 
REMARK    2  A    between atoms: O_3  and  C_4 
REMARK    3  A    between atoms: C_5  and  C_6 
REMARK    4  A    between atoms: C_6  and  O_8 
REMARK    5  A    between atoms: C_13  and  C_14 
REMARK    6  A    between atoms: C_14  and  O_16 
ROOT
HETATM    1  C   UNK N   1      11.131  -3.648   3.971  0.00  0.00     0.105 A 
HETATM    2  C   UNK N   1      11.933  -4.187   2.932  0.00  0.00     0.072 A 
HETATM    3  C   UNK N   1      12.095  -5.580   2.845  0.00  0.00     0.024 A 
HETATM    4  C   UNK N   1      11.474  -6.426   3.759  0.00  0.00     0.044 A 
HETATM    5  C   UNK N   1      10.669  -5.908   4.770  0.00  0.00     0.136 A 
HETATM    6  F   UNK N   1      10.066  -6.774   5.623  0.00  0.00    -0.205 F 
HETATM    7  C   UNK N   1      10.474  -4.515   4.887  0.00  0.00     0.110 A 
ENDROOT
BRANCH   2   8
HETATM    8  C   UNK N   1      12.605  -3.314   1.923  0.00  0.00     0.179 C 
HETATM    9  O   UNK N   1      12.402  -3.490   0.729  0.00  0.00    -0.646 OA
BRANCH   8  10
HETATM   10  O   UNK N   1      13.412  -2.303   2.312  0.00  0.00    -0.773 OA
HETATM   11  H   UNK N   1      14.347  -2.458   2.515  0.00  0.00     0.167 HD
ENDBRANCH   8  10
ENDBRANCH   2   8
BRANCH   1  12
HETATM   12  O   UNK N   1      11.016  -2.305   4.103  0.00  0.00    -0.349 OA
BRANCH  12  13
HETATM   13  C   UNK N   1      10.044  -1.609   3.404  0.00  0.00     0.171 C 
HETATM   14  C   UNK N   1      10.558  -0.230   3.025  0.00  0.00     0.034 C 
ENDBRANCH  12  13
ENDBRANCH   1  12
BRANCH   7  15
HETATM   15  C   UNK N   1       9.569  -3.977   5.952  0.00  0.00     0.182 C 
HETATM   16  O   UNK N   1       8.407  -3.698   5.693  0.00  0.00    -0.646 OA
BRANCH  15  17
HETATM   17  O   UNK N   1      10.038  -3.738   7.196  0.00  0.00    -0.772 OA
HETATM   18  H   UNK N   1      10.270  -2.845   7.482  0.00  0.00     0.167 HD
ENDBRANCH  15  17
ENDBRANCH   7  15
TORSDOF 6
ENDMDL
MODEL 4
REMARK VINA RESULT:      -5.4      2.257      5.399
REMARK  6 active torsions:
REMARK  status: ('A' for Active; 'I' for Inactive)
REMARK    1  A    between atoms: C_2  and  O_3 
REMARK    2  A    between atoms: O_3  and  C_4 
REMARK    3  A    between atoms: C_5  and  C_6 
REMARK    4  A    between atoms: C_6  and  O_8 
REMARK    5  A    between atoms: C_13  and  C_14 
REMARK    6  A    between atoms: C_14  and  O_16 
ROOT
HETATM    1  C   UNK N   1      11.165  -4.170   3.380  0.00  0.00     0.105 A 
HETATM    2  C   UNK N   1      10.669  -3.282   4.369  0.00  0.00     0.072 A 
HETATM    3  C   UNK N   1      11.192  -1.980   4.443  0.00  0.00     0.024 A 
HETATM    4  C   UNK N   1      12.179  -1.559   3.558  0.00  0.00     0.044 A 
HETATM    5  C   UNK N   1      12.658  -2.417   2.571  0.00  0.00     0.136 A 
HETATM    6  F   UNK N   1      13.605  -1.953   1.716  0.00  0.00    -0.205 F 
HETATM    7  C   UNK N   1      12.154  -3.731   2.458  0.00  0.00     0.110 A 
ENDROOT
BRANCH   2   8
HETATM    8  C   UNK N   1       9.600  -3.691   5.330  0.00  0.00     0.179 C 
HETATM    9  O   UNK N   1       9.842  -3.745   6.528  0.00  0.00    -0.646 OA
BRANCH   8  10
HETATM   10  O   UNK N   1       8.352  -3.971   4.896  0.00  0.00    -0.773 OA
HETATM   11  H   UNK N   1       8.182  -4.200   3.970  0.00  0.00     0.167 HD
ENDBRANCH   8  10
ENDBRANCH   2   8
BRANCH   1  12
HETATM   12  O   UNK N   1      10.714  -5.446   3.337  0.00  0.00    -0.349 OA
BRANCH  12  13
HETATM   13  C   UNK N   1      11.324  -6.435   4.091  0.00  0.00     0.171 C 
HETATM   14  C   UNK N   1      10.325  -7.531   4.423  0.00  0.00     0.034 C 
ENDBRANCH  12  13
ENDBRANCH   1  12
BRANCH   7  15
HETATM   15  C   UNK N   1      12.647  -4.626   1.363  0.00  0.00     0.182 C 
HETATM   16  O   UNK N   1      13.798  -5.037   1.373  0.00  0.00    -0.646 OA
BRANCH  15  17
HETATM   17  O   UNK N   1      11.846  -4.942   0.322  0.00  0.00    -0.772 OA
HETATM   18  H   UNK N   1      11.730  -5.859   0.039  0.00  0.00     0.167 HD
ENDBRANCH  15  17
ENDBRANCH   7  15
TORSDOF 6
ENDMDL
MODEL 5
REMARK VINA RESULT:      -5.3      2.034      2.629
REMARK  6 active torsions:
REMARK  status: ('A' for Active; 'I' for Inactive)
REMARK    1  A    between atoms: C_2  and  O_3 
REMARK    2  A    between atoms: O_3  and  C_4 
REMARK    3  A    between atoms: C_5  and  C_6 
REMARK    4  A    between atoms: C_6  and  O_8 
REMARK    5  A    between atoms: C_13  and  C_14 
REMARK    6  A    between atoms: C_14  and  O_16 
ROOT
HETATM    1  C   UNK N   1      11.713  -3.284   2.199  0.00  0.00     0.105 A 
HETATM    2  C   UNK N   1      12.611  -4.330   1.862  0.00  0.00     0.072 A 
HETATM    3  C   UNK N   1      12.382  -5.618   2.371  0.00  0.00     0.024 A 
HETATM    4  C   UNK N   1      11.288  -5.875   3.191  0.00  0.00     0.044 A 
HETATM    5  C   UNK N   1      10.390  -4.860   3.512  0.00  0.00     0.136 A 
HETATM    6  F   UNK N   1       9.325  -5.164   4.296  0.00  0.00    -0.205 F 
HETATM    7  C   UNK N   1      10.579  -3.552   3.014  0.00  0.00     0.110 A 
ENDROOT
BRANCH   2   8
HETATM    8  C   UNK N   1      13.789  -4.099   0.973  0.00  0.00     0.179 C 
HETATM    9  O   UNK N   1      13.780  -4.515  -0.177  0.00  0.00    -0.646 OA
BRANCH   8  10
HETATM   10  O   UNK N   1      14.860  -3.403   1.412  0.00  0.00    -0.773 OA
HETATM   11  H   UNK N   1      15.735  -3.813   1.473  0.00  0.00     0.167 HD
ENDBRANCH   8  10
ENDBRANCH   2   8
BRANCH   1  12
HETATM   12  O   UNK N   1      11.955  -2.024   1.765  0.00  0.00    -0.349 OA
BRANCH  12  13
HETATM   13  C   UNK N   1      12.591  -1.107   2.585  0.00  0.00     0.171 C 
HETATM   14  C   UNK N   1      13.385  -0.118   1.748  0.00  0.00     0.034 C 
ENDBRANCH  12  13
ENDBRANCH   1  12
BRANCH   7  15
HETATM   15  C   UNK N   1       9.580  -2.483   3.331  0.00  0.00     0.182 C 
HETATM   16  O   UNK N   1       9.373  -2.155   4.490  0.00  0.00    -0.646 OA
BRANCH  15  17
HETATM   17  O   UNK N   1       8.853  -1.909   2.347  0.00  0.00    -0.772 OA
HETATM   18  H   UNK N   1       9.163  -1.114   1.893  0.00  0.00     0.167 HD
ENDBRANCH  15  17
ENDBRANCH   7  15
TORSDOF 6
ENDMDL
MODEL 6
REMARK VINA RESULT:      -5.1      5.688      7.729
REMARK  6 active torsions:
REMARK  status: ('A' for Active; 'I' for Inactive)
REMARK    1  A    between atoms: C_2  and  O_3 
REMARK    2  A    between atoms: O_3  and  C_4 
REMARK    3  A    between atoms: C_5  and  C_6 
REMARK    4  A    between atoms: C_6  and  O_8 
REMARK    5  A    between atoms: C_13  and  C_14 
REMARK    6  A    between atoms: C_14  and  O_16 
ROOT
HETATM    1  C   UNK N   1      11.736 -10.713   5.822  0.00  0.00     0.105 A 
HETATM    2  C   UNK N   1      11.180  -9.659   6.592  0.00  0.00     0.072 A 
HETATM    3  C   UNK N   1      11.342  -9.672   7.988  0.00  0.00     0.024 A 
HETATM    4  C   UNK N   1      12.041 -10.700   8.612  0.00  0.00     0.044 A 
HETATM    5  C   UNK N   1      12.607 -11.729   7.864  0.00  0.00     0.136 A 
HETATM    6  F   UNK N   1      13.300 -12.697   8.516  0.00  0.00    -0.205 F 
HETATM    7  C   UNK N   1      12.474 -11.749   6.458  0.00  0.00     0.110 A 
ENDROOT
BRANCH   2   8
HETATM    8  C   UNK N   1      10.435  -8.530   5.959  0.00  0.00     0.179 C 
HETATM    9  O   UNK N   1      10.802  -7.377   6.138  0.00  0.00    -0.646 OA
BRANCH   8  10
HETATM   10  O   UNK N   1       9.373  -8.766   5.157  0.00  0.00    -0.773 OA
HETATM   11  H   UNK N   1       8.614  -9.280   5.469  0.00  0.00     0.167 HD
ENDBRANCH   8  10
ENDBRANCH   2   8
BRANCH   1  12
HETATM   12  O   UNK N   1      11.535 -10.745   4.483  0.00  0.00    -0.349 OA
BRANCH  12  13
HETATM   13  C   UNK N   1      10.551 -11.552   3.938  0.00  0.00     0.171 C 
HETATM   14  C   UNK N   1      11.092 -12.291   2.725  0.00  0.00     0.034 C 
ENDBRANCH  12  13
ENDBRANCH   1  12
BRANCH   7  15
HETATM   15  C   UNK N   1      13.127 -12.838   5.664  0.00  0.00     0.182 C 
HETATM   16  O   UNK N   1      12.773 -13.999   5.801  0.00  0.00    -0.646 OA
BRANCH  15  17
HETATM   17  O   UNK N   1      14.152 -12.559   4.829  0.00  0.00    -0.772 OA
HETATM   18  H   UNK N   1      15.032 -12.932   4.974  0.00  0.00     0.167 HD
ENDBRANCH  15  17
ENDBRANCH   7  15
TORSDOF 6
ENDMDL
MODEL 7
REMARK VINA RESULT:      -4.9      3.120      4.692
REMARK  6 active torsions:
REMARK  status: ('A' for Active; 'I' for Inactive)
REMARK    1  A    between atoms: C_2  and  O_3 
REMARK    2  A    between atoms: O_3  and  C_4 
REMARK    3  A    between atoms: C_5  and  C_6 
REMARK    4  A    between atoms: C_6  and  O_8 
REMARK    5  A    between atoms: C_13  and  C_14 
REMARK    6  A    between atoms: C_14  and  O_16 
ROOT
HETATM    1  C   UNK N   1      12.138  -2.414   3.304  0.00  0.00     0.105 A 
HETATM    2  C   UNK N   1      12.686  -3.005   2.136  0.00  0.00     0.072 A 
HETATM    3  C   UNK N   1      13.210  -2.174   1.131  0.00  0.00     0.024 A 
HETATM    4  C   UNK N   1      13.199  -0.791   1.275  0.00  0.00     0.044 A 
HETATM    5  C   UNK N   1      12.681  -0.203   2.426  0.00  0.00     0.136 A 
HETATM    6  F   UNK N   1      12.713   1.151   2.531  0.00  0.00    -0.205 F 
HETATM    7  C   UNK N   1      12.152  -1.002   3.463  0.00  0.00     0.110 A 
ENDROOT
BRANCH   2   8
HETATM    8  C   UNK N   1      12.730  -4.486   1.949  0.00  0.00     0.179 C 
HETATM    9  O   UNK N   1      12.466  -4.974   0.858  0.00  0.00    -0.646 OA
BRANCH   8  10
HETATM   10  O   UNK N   1      13.090  -5.301   2.964  0.00  0.00    -0.773 OA
HETATM   11  H   UNK N   1      13.704  -5.004   3.652  0.00  0.00     0.167 HD
ENDBRANCH   8  10
ENDBRANCH   2   8
BRANCH   1  12
HETATM   12  O   UNK N   1      11.575  -3.200   4.252  0.00  0.00    -0.349 OA
BRANCH  12  13
HETATM   13  C   UNK N   1      10.197  -3.296   4.360  0.00  0.00     0.171 C 
HETATM   14  C   UNK N   1       9.713  -4.593   3.732  0.00  0.00     0.034 C 
ENDBRANCH  12  13
ENDBRANCH   1  12
BRANCH   7  15
HETATM   15  C   UNK N   1      11.641  -0.356   4.714  0.00  0.00     0.182 C 
HETATM   16  O   UNK N   1      10.734   0.463   4.659  0.00  0.00    -0.646 OA
BRANCH  15  17
HETATM   17  O   UNK N   1      12.211  -0.625   5.908  0.00  0.00    -0.772 OA
HETATM   18  H   UNK N   1      13.160  -0.792   5.985  0.00  0.00     0.167 HD
ENDBRANCH  15  17
ENDBRANCH   7  15
TORSDOF 6
ENDMDL
MODEL 8
REMARK VINA RESULT:      -4.9      6.432      8.467
REMARK  6 active torsions:
REMARK  status: ('A' for Active; 'I' for Inactive)
REMARK    1  A    between atoms: C_2  and  O_3 
REMARK    2  A    between atoms: O_3  and  C_4 
REMARK    3  A    between atoms: C_5  and  C_6 
REMARK    4  A    between atoms: C_6  and  O_8 
REMARK    5  A    between atoms: C_13  and  C_14 
REMARK    6  A    between atoms: C_14  and  O_16 
ROOT
HETATM    1  C   UNK N   1      11.307 -11.716   6.440  0.00  0.00     0.105 A 
HETATM    2  C   UNK N   1      11.773 -11.173   7.666  0.00  0.00     0.072 A 
HETATM    3  C   UNK N   1      12.833 -11.807   8.334  0.00  0.00     0.024 A 
HETATM    4  C   UNK N   1      13.427 -12.948   7.805  0.00  0.00     0.044 A 
HETATM    5  C   UNK N   1      12.990 -13.476   6.593  0.00  0.00     0.136 A 
HETATM    6  F   UNK N   1      13.616 -14.578   6.105  0.00  0.00    -0.205 F 
HETATM    7  C   UNK N   1      11.932 -12.865   5.885  0.00  0.00     0.110 A 
ENDROOT
BRANCH   2   8
HETATM    8  C   UNK N   1      11.171  -9.942   8.260  0.00  0.00     0.179 C 
HETATM    9  O   UNK N   1      11.894  -9.068   8.720  0.00  0.00    -0.646 OA
BRANCH   8  10
HETATM   10  O   UNK N   1       9.832  -9.761   8.268  0.00  0.00    -0.773 OA
HETATM   11  H   UNK N   1       9.346  -9.651   9.098  0.00  0.00     0.167 HD
ENDBRANCH   8  10
ENDBRANCH   2   8
BRANCH   1  12
HETATM   12  O   UNK N   1      10.245 -11.151   5.816  0.00  0.00    -0.349 OA
BRANCH  12  13
HETATM   13  C   UNK N   1      10.423 -10.401   4.665  0.00  0.00     0.171 C 
HETATM   14  C   UNK N   1       9.866  -9.001   4.862  0.00  0.00     0.034 C 
ENDBRANCH  12  13
ENDBRANCH   1  12
BRANCH   7  15
HETATM   15  C   UNK N   1      11.504 -13.420   4.561  0.00  0.00     0.182 C 
HETATM   16  O   UNK N   1      12.264 -13.387   3.603  0.00  0.00    -0.646 OA
BRANCH  15  17
HETATM   17  O   UNK N   1      10.257 -13.910   4.393  0.00  0.00    -0.772 OA
HETATM   18  H   UNK N   1       9.477 -13.359   4.547  0.00  0.00     0.167 HD
ENDBRANCH  15  17
ENDBRANCH   7  15
TORSDOF 6
ENDMDL
MODEL 9
REMARK VINA RESULT:      -4.9      3.126      5.834
REMARK  6 active torsions:
REMARK  status: ('A' for Active; 'I' for Inactive)
REMARK    1  A    between atoms: C_2  and  O_3 
REMARK    2  A    between atoms: O_3  and  C_4 
REMARK    3  A    between atoms: C_5  and  C_6 
REMARK    4  A    between atoms: C_6  and  O_8 
REMARK    5  A    between atoms: C_13  and  C_14 
REMARK    6  A    between atoms: C_14  and  O_16 
ROOT
HETATM    1  C   UNK N   1      12.128  -2.868   2.786  0.00  0.00     0.105 A 
HETATM    2  C   UNK N   1      11.213  -2.244   3.674  0.00  0.00     0.072 A 
HETATM    3  C   UNK N   1      11.212  -0.844   3.783  0.00  0.00     0.024 A 
HETATM    4  C   UNK N   1      12.090  -0.072   3.029  0.00  0.00     0.044 A 
HETATM    5  C   UNK N   1      12.978  -0.673   2.141  0.00  0.00     0.136 A 
HETATM    6  F   UNK N   1      13.800   0.124   1.410  0.00  0.00    -0.205 F 
HETATM    7  C   UNK N   1      13.006  -2.077   1.995  0.00  0.00     0.110 A 
ENDROOT
BRANCH   2   8
HETATM    8  C   UNK N   1      10.245  -3.037   4.491  0.00  0.00     0.179 C 
HETATM    9  O   UNK N   1       9.060  -2.733   4.500  0.00  0.00    -0.646 OA
BRANCH   8  10
HETATM   10  O   UNK N   1      10.655  -4.112   5.198  0.00  0.00    -0.773 OA
HETATM   11  H   UNK N   1      10.557  -5.010   4.848  0.00  0.00     0.167 HD
ENDBRANCH   8  10
ENDBRANCH   2   8
BRANCH   1  12
HETATM   12  O   UNK N   1      12.182  -4.219   2.717  0.00  0.00    -0.349 OA
BRANCH  12  13
HETATM   13  C   UNK N   1      11.640  -4.891   1.634  0.00  0.00     0.171 C 
HETATM   14  C   UNK N   1      10.351  -5.587   2.041  0.00  0.00     0.034 C 
ENDBRANCH  12  13
ENDBRANCH   1  12
BRANCH   7  15
HETATM   15  C   UNK N   1      13.935  -2.705   1.003  0.00  0.00     0.182 C 
HETATM   16  O   UNK N   1      13.777  -2.519  -0.195  0.00  0.00    -0.646 OA
BRANCH  15  17
HETATM   17  O   UNK N   1      14.923  -3.529   1.414  0.00  0.00    -0.772 OA
HETATM   18  H   UNK N   1      14.777  -4.176   2.117  0.00  0.00     0.167 HD
ENDBRANCH  15  17
ENDBRANCH   7  15
TORSDOF 6
ENDMDL
