MODEL 1
REMARK VINA RESULT:      -6.3      0.000      0.000
REMARK  3 active torsions:
REMARK  status: ('A' for Active; 'I' for Inactive)
REMARK    1  A    between atoms: C_2  and  O_3 
REMARK    2  A    between atoms: C_2  and  C_4 
REMARK    3  A    between atoms: C_11  and  C_12 
ROOT
HETATM    1  C   UNK N   1      10.689  -3.751   4.378  0.00  0.00     0.049 A 
HETATM    2  C   UNK N   1      11.068  -2.423   4.077  0.00  0.00     0.022 A 
HETATM    3  C   UNK N   1      12.039  -2.143   3.123  0.00  0.00     0.046 A 
HETATM    4  C   UNK N   1      12.663  -3.174   2.437  0.00  0.00     0.155 A 
HETATM    5  F   UNK N   1      13.620  -2.891   1.520  0.00  0.00    -0.203 F 
HETATM    6  C   UNK N   1      12.301  -4.497   2.679  0.00  0.00     0.164 A 
HETATM    7  F   UNK N   1      12.932  -5.473   1.975  0.00  0.00    -0.202 F 
HETATM    8  C   UNK N   1      11.304  -4.822   3.634  0.00  0.00     0.029 A 
ENDROOT
BRANCH   8   9
HETATM    9  C   UNK N   1      10.912  -6.293   3.770  0.00  0.00     0.158 C 
HETATM   10  C   UNK N   1      11.517  -6.907   5.034  0.00  0.00     0.039 C 
HETATM   11  C   UNK N   1      10.615  -8.088   5.175  0.00  0.00     0.029 C 
HETATM   12  C   UNK N   1       9.288  -7.404   4.895  0.00  0.00     0.168 C 
HETATM   13  O   UNK N   1       9.507  -6.470   3.848  0.00  0.00    -0.381 OA
ENDBRANCH   8   9
BRANCH   1  14
HETATM   14  C   UNK N   1       9.666  -3.927   5.465  0.00  0.00     0.176 C 
HETATM   15  O   UNK N   1      10.038  -4.073   6.624  0.00  0.00    -0.646 OA
BRANCH  14  16
HETATM   16  O   UNK N   1       8.351  -4.026   5.199  0.00  0.00    -0.773 OA
HETATM   17  H   UNK N   1       7.699  -4.148   5.904  0.00  0.00     0.167 HD
ENDBRANCH  14  16
ENDBRANCH   1  14
TORSDOF 3
ENDMDL
MODEL 2
REMARK VINA RESULT:      -6.2      1.776      4.103
REMARK  3 active torsions:
REMARK  status: ('A' for Active; 'I' for Inactive)
REMARK    1  A    between atoms: C_2  and  O_3 
REMARK    2  A    between atoms: C_2  and  C_4 
REMARK    3  A    between atoms: C_11  and  C_12 
ROOT
HETATM    1  C   UNK N   1      10.358  -4.386   4.654  0.00  0.00     0.049 A 
HETATM    2  C   UNK N   1      11.071  -5.603   4.565  0.00  0.00     0.022 A 
HETATM    3  C   UNK N   1      11.798  -5.938   3.429  0.00  0.00     0.046 A 
HETATM    4  C   UNK N   1      11.842  -5.073   2.346  0.00  0.00     0.155 A 
HETATM    5  F   UNK N   1      12.542  -5.416   1.237  0.00  0.00    -0.203 F 
HETATM    6  C   UNK N   1      11.180  -3.849   2.400  0.00  0.00     0.164 A 
HETATM    7  F   UNK N   1      11.259  -3.029   1.320  0.00  0.00    -0.202 F 
HETATM    8  C   UNK N   1      10.439  -3.465   3.547  0.00  0.00     0.029 A 
ENDROOT
BRANCH   8   9
HETATM    9  C   UNK N   1       9.818  -2.069   3.550  0.00  0.00     0.158 C 
HETATM   10  C   UNK N   1      10.887  -0.994   3.340  0.00  0.00     0.039 C 
HETATM   11  C   UNK N   1      10.006   0.127   2.896  0.00  0.00     0.029 C 
HETATM   12  C   UNK N   1       9.116  -0.641   1.935  0.00  0.00     0.168 C 
HETATM   13  O   UNK N   1       8.852  -1.907   2.524  0.00  0.00    -0.381 OA
ENDBRANCH   8   9
BRANCH   1  14
HETATM   14  C   UNK N   1       9.567  -4.162   5.912  0.00  0.00     0.176 C 
HETATM   15  O   UNK N   1       8.344  -4.224   5.873  0.00  0.00    -0.646 OA
BRANCH  14  16
HETATM   16  O   UNK N   1      10.152  -3.798   7.068  0.00  0.00    -0.773 OA
HETATM   17  H   UNK N   1      10.540  -4.453   7.666  0.00  0.00     0.167 HD
ENDBRANCH  14  16
ENDBRANCH   1  14
TORSDOF 3
ENDMDL
MODEL 3
REMARK VINA RESULT:      -6.2      4.590      7.024
REMARK  3 active torsions:
REMARK  status: ('A' for Active; 'I' for Inactive)
REMARK    1  A    between atoms: C_2  and  O_3 
REMARK    2  A    between atoms: C_2  and  C_4 
REMARK    3  A    between atoms: C_11  and  C_12 
ROOT
HETATM    1  C   UNK N   1      11.722 -10.596   7.431  0.00  0.00     0.049 A 
HETATM    2  C   UNK N   1      12.319 -11.750   7.986  0.00  0.00     0.022 A 
HETATM    3  C   UNK N   1      13.009 -12.663   7.196  0.00  0.00     0.046 A 
HETATM    4  C   UNK N   1      13.129 -12.456   5.831  0.00  0.00     0.155 A 
HETATM    5  F   UNK N   1      13.789 -13.361   5.067  0.00  0.00    -0.203 F 
HETATM    6  C   UNK N   1      12.583 -11.317   5.244  0.00  0.00     0.164 A 
HETATM    7  F   UNK N   1      12.734 -11.151   3.904  0.00  0.00    -0.202 F 
HETATM    8  C   UNK N   1      11.885 -10.356   6.018  0.00  0.00     0.029 A 
ENDROOT
BRANCH   8   9
HETATM    9  C   UNK N   1      11.396  -9.096   5.304  0.00  0.00     0.158 C 
HETATM   10  C   UNK N   1       9.960  -9.271   4.805  0.00  0.00     0.039 C 
HETATM   11  C   UNK N   1       9.595  -7.834   4.635  0.00  0.00     0.029 C 
HETATM   12  C   UNK N   1      10.177  -7.290   5.928  0.00  0.00     0.168 C 
HETATM   13  O   UNK N   1      11.411  -7.957   6.149  0.00  0.00    -0.381 OA
ENDBRANCH   8   9
BRANCH   1  14
HETATM   14  C   UNK N   1      10.960  -9.712   8.378  0.00  0.00     0.176 C 
HETATM   15  O   UNK N   1      11.563  -9.122   9.267  0.00  0.00    -0.646 OA
BRANCH  14  16
HETATM   16  O   UNK N   1       9.618  -9.620   8.346  0.00  0.00    -0.773 OA
HETATM   17  H   UNK N   1       9.156  -8.839   8.681  0.00  0.00     0.167 HD
ENDBRANCH  14  16
ENDBRANCH   1  14
TORSDOF 3
ENDMDL
MODEL 4
REMARK VINA RESULT:      -5.9      1.858      2.598
REMARK  3 active torsions:
REMARK  status: ('A' for Active; 'I' for Inactive)
REMARK    1  A    between atoms: C_2  and  O_3 
REMARK    2  A    between atoms: C_2  and  C_4 
REMARK    3  A    between atoms: C_11  and  C_12 
ROOT
HETATM    1  C   UNK N   1      12.197  -2.343   3.196  0.00  0.00     0.049 A 
HETATM    2  C   UNK N   1      13.075  -1.673   2.314  0.00  0.00     0.022 A 
HETATM    3  C   UNK N   1      13.764  -2.354   1.318  0.00  0.00     0.046 A 
HETATM    4  C   UNK N   1      13.600  -3.722   1.163  0.00  0.00     0.155 A 
HETATM    5  F   UNK N   1      14.289  -4.379   0.198  0.00  0.00    -0.203 F 
HETATM    6  C   UNK N   1      12.722  -4.420   1.989  0.00  0.00     0.164 A 
HETATM    7  F   UNK N   1      12.586  -5.758   1.795  0.00  0.00    -0.202 F 
HETATM    8  C   UNK N   1      11.991  -3.758   3.008  0.00  0.00     0.029 A 
ENDROOT
BRANCH   8   9
HETATM    9  C   UNK N   1      10.987  -4.589   3.808  0.00  0.00     0.158 C 
HETATM   10  C   UNK N   1       9.865  -5.109   2.906  0.00  0.00     0.039 C 
HETATM   11  C   UNK N   1       9.371  -6.223   3.768  0.00  0.00     0.029 C 
HETATM   12  C   UNK N   1      10.708  -6.806   4.187  0.00  0.00     0.168 C 
HETATM   13  O   UNK N   1      11.589  -5.717   4.421  0.00  0.00    -0.381 OA
ENDBRANCH   8   9
BRANCH   1  14
HETATM   14  C   UNK N   1      11.551  -1.507   4.265  0.00  0.00     0.176 C 
HETATM   15  O   UNK N   1      10.395  -1.129   4.116  0.00  0.00    -0.646 OA
BRANCH  14  16
HETATM   16  O   UNK N   1      12.231  -1.077   5.343  0.00  0.00    -0.773 OA
HETATM   17  H   UNK N   1      12.237  -1.578   6.170  0.00  0.00     0.167 HD
ENDBRANCH  14  16
ENDBRANCH   1  14
TORSDOF 3
ENDMDL
MODEL 5
REMARK VINA RESULT:      -5.7      2.475      4.259
REMARK  3 active torsions:
REMARK  status: ('A' for Active; 'I' for Inactive)
REMARK    1  A    between atoms: C_2  and  O_3 
REMARK    2  A    between atoms: C_2  and  C_4 
REMARK    3  A    between atoms: C_11  and  C_12 
ROOT
HETATM    1  C   UNK N   1      10.115  -3.994   4.505  0.00  0.00     0.049 A 
HETATM    2  C   UNK N   1       9.409  -4.247   5.703  0.00  0.00     0.022 A 
HETATM    3  C   UNK N   1       9.498  -5.472   6.354  0.00  0.00     0.046 A 
HETATM    4  C   UNK N   1      10.292  -6.483   5.836  0.00  0.00     0.155 A 
HETATM    5  F   UNK N   1      10.359  -7.679   6.470  0.00  0.00    -0.203 F 
HETATM    6  C   UNK N   1      11.030  -6.269   4.675  0.00  0.00     0.164 A 
HETATM    7  F   UNK N   1      11.803  -7.286   4.210  0.00  0.00    -0.202 F 
HETATM    8  C   UNK N   1      10.977  -5.028   3.990  0.00  0.00     0.029 A 
ENDROOT
BRANCH   8   9
HETATM    9  C   UNK N   1      11.887  -4.856   2.774  0.00  0.00     0.158 C 
HETATM   10  C   UNK N   1      11.123  -5.127   1.476  0.00  0.00     0.039 C 
HETATM   11  C   UNK N   1      12.033  -4.429   0.520  0.00  0.00     0.029 C 
HETATM   12  C   UNK N   1      12.287  -3.164   1.319  0.00  0.00     0.168 C 
HETATM   13  O   UNK N   1      12.419  -3.544   2.681  0.00  0.00    -0.381 OA
ENDBRANCH   8   9
BRANCH   1  14
HETATM   14  C   UNK N   1       9.898  -2.650   3.869  0.00  0.00     0.176 C 
HETATM   15  O   UNK N   1       9.050  -2.530   2.992  0.00  0.00    -0.646 OA
BRANCH  14  16
HETATM   16  O   UNK N   1      10.670  -1.587   4.161  0.00  0.00    -0.773 OA
HETATM   17  H   UNK N   1      10.300  -0.696   4.228  0.00  0.00     0.167 HD
ENDBRANCH  14  16
ENDBRANCH   1  14
TORSDOF 3
ENDMDL
MODEL 6
REMARK VINA RESULT:      -5.6      2.844      5.139
REMARK  3 active torsions:
REMARK  status: ('A' for Active; 'I' for Inactive)
REMARK    1  A    between atoms: C_2  and  O_3 
REMARK    2  A    between atoms: C_2  and  C_4 
REMARK    3  A    between atoms: C_11  and  C_12 
ROOT
HETATM    1  C   UNK N   1      11.428  -5.449   3.549  0.00  0.00     0.049 A 
HETATM    2  C   UNK N   1      11.393  -6.801   3.959  0.00  0.00     0.022 A 
HETATM    3  C   UNK N   1      10.739  -7.192   5.122  0.00  0.00     0.046 A 
HETATM    4  C   UNK N   1      10.098  -6.251   5.913  0.00  0.00     0.155 A 
HETATM    5  F   UNK N   1       9.477  -6.640   7.054  0.00  0.00    -0.203 F 
HETATM    6  C   UNK N   1      10.080  -4.911   5.534  0.00  0.00     0.164 A 
HETATM    7  F   UNK N   1       9.430  -4.027   6.335  0.00  0.00    -0.202 F 
HETATM    8  C   UNK N   1      10.723  -4.476   4.347  0.00  0.00     0.029 A 
ENDROOT
BRANCH   8   9
HETATM    9  C   UNK N   1      10.577  -3.003   3.966  0.00  0.00     0.158 C 
HETATM   10  C   UNK N   1      11.938  -2.303   3.953  0.00  0.00     0.039 C 
HETATM   11  C   UNK N   1      11.586  -1.123   3.109  0.00  0.00     0.029 C 
HETATM   12  C   UNK N   1      10.784  -1.836   2.034  0.00  0.00     0.168 C 
HETATM   13  O   UNK N   1      10.006  -2.834   2.679  0.00  0.00    -0.381 OA
ENDBRANCH   8   9
BRANCH   1  14
HETATM   14  C   UNK N   1      12.210  -5.145   2.302  0.00  0.00     0.176 C 
HETATM   15  O   UNK N   1      11.668  -5.262   1.209  0.00  0.00    -0.646 OA
BRANCH  14  16
HETATM   16  O   UNK N   1      13.520  -4.840   2.338  0.00  0.00    -0.773 OA
HETATM   17  H   UNK N   1      14.108  -5.046   1.598  0.00  0.00     0.167 HD
ENDBRANCH  14  16
ENDBRANCH   1  14
TORSDOF 3
ENDMDL
MODEL 7
REMARK VINA RESULT:      -5.4      2.508      4.559
REMARK  3 active torsions:
REMARK  status: ('A' for Active; 'I' for Inactive)
REMARK    1  A    between atoms: C_2  and  O_3 
REMARK    2  A    between atoms: C_2  and  C_4 
REMARK    3  A    between atoms: C_11  and  C_12 
ROOT
HETATM    1  C   UNK N   1       9.503  -3.641   3.068  0.00  0.00     0.049 A 
HETATM    2  C   UNK N   1       8.357  -4.441   3.279  0.00  0.00     0.022 A 
HETATM    3  C   UNK N   1       8.452  -5.817   3.444  0.00  0.00     0.046 A 
HETATM    4  C   UNK N   1       9.689  -6.442   3.406  0.00  0.00     0.155 A 
HETATM    5  F   UNK N   1       9.770  -7.788   3.552  0.00  0.00    -0.203 F 
HETATM    6  C   UNK N   1      10.849  -5.692   3.231  0.00  0.00     0.164 A 
HETATM    7  F   UNK N   1      12.039  -6.346   3.211  0.00  0.00    -0.202 F 
HETATM    8  C   UNK N   1      10.794  -4.283   3.074  0.00  0.00     0.029 A 
ENDROOT
BRANCH   8   9
HETATM    9  C   UNK N   1      12.122  -3.533   2.974  0.00  0.00     0.158 C 
HETATM   10  C   UNK N   1      12.391  -3.083   1.536  0.00  0.00     0.039 C 
HETATM   11  C   UNK N   1      13.397  -2.015   1.810  0.00  0.00     0.029 C 
HETATM   12  C   UNK N   1      12.713  -1.345   2.989  0.00  0.00     0.168 C 
HETATM   13  O   UNK N   1      12.147  -2.372   3.789  0.00  0.00    -0.381 OA
ENDBRANCH   8   9
BRANCH   1  14
HETATM   14  C   UNK N   1       9.266  -2.172   2.851  0.00  0.00     0.176 C 
HETATM   15  O   UNK N   1       9.129  -1.747   1.710  0.00  0.00    -0.646 OA
BRANCH  14  16
HETATM   16  O   UNK N   1       9.293  -1.287   3.865  0.00  0.00    -0.773 OA
HETATM   17  H   UNK N   1       8.872  -0.420   3.790  0.00  0.00     0.167 HD
ENDBRANCH  14  16
ENDBRANCH   1  14
TORSDOF 3
ENDMDL
MODEL 8
REMARK VINA RESULT:      -5.4      2.146      4.613
REMARK  3 active torsions:
REMARK  status: ('A' for Active; 'I' for Inactive)
REMARK    1  A    between atoms: C_2  and  O_3 
REMARK    2  A    between atoms: C_2  and  C_4 
REMARK    3  A    between atoms: C_11  and  C_12 
ROOT
HETATM    1  C   UNK N   1      11.344  -3.530   3.241  0.00  0.00     0.049 A 
HETATM    2  C   UNK N   1      11.487  -4.908   2.960  0.00  0.00     0.022 A 
HETATM    3  C   UNK N   1      12.432  -5.371   2.052  0.00  0.00     0.046 A 
HETATM    4  C   UNK N   1      13.268  -4.479   1.397  0.00  0.00     0.155 A 
HETATM    5  F   UNK N   1      14.176  -4.940   0.502  0.00  0.00    -0.203 F 
HETATM    6  C   UNK N   1      13.184  -3.115   1.664  0.00  0.00     0.164 A 
HETATM    7  F   UNK N   1      14.030  -2.280   1.005  0.00  0.00    -0.202 F 
HETATM    8  C   UNK N   1      12.242  -2.606   2.594  0.00  0.00     0.029 A 
ENDROOT
BRANCH   8   9
HETATM    9  C   UNK N   1      12.282  -1.106   2.887  0.00  0.00     0.158 C 
HETATM   10  C   UNK N   1      11.272  -0.352   2.019  0.00  0.00     0.039 C 
HETATM   11  C   UNK N   1      11.164   0.901   2.823  0.00  0.00     0.029 C 
HETATM   12  C   UNK N   1      11.074   0.284   4.208  0.00  0.00     0.168 C 
HETATM   13  O   UNK N   1      11.973  -0.814   4.240  0.00  0.00    -0.381 OA
ENDBRANCH   8   9
BRANCH   1  14
HETATM   14  C   UNK N   1      10.252  -3.150   4.201  0.00  0.00     0.176 C 
HETATM   15  O   UNK N   1       9.169  -2.781   3.763  0.00  0.00    -0.646 OA
BRANCH  14  16
HETATM   16  O   UNK N   1      10.452  -3.110   5.531  0.00  0.00    -0.773 OA
HETATM   17  H   UNK N   1      10.864  -3.847   6.003  0.00  0.00     0.167 HD
ENDBRANCH  14  16
ENDBRANCH   1  14
TORSDOF 3
ENDMDL
MODEL 9
REMARK VINA RESULT:      -5.1      7.188      8.605
REMARK  3 active torsions:
REMARK  status: ('A' for Active; 'I' for Inactive)
REMARK    1  A    between atoms: C_2  and  O_3 
REMARK    2  A    between atoms: C_2  and  C_4 
REMARK    3  A    between atoms: C_11  and  C_12 
ROOT
HETATM    1  C   UNK N   1      10.782 -11.658   5.741  0.00  0.00     0.049 A 
HETATM    2  C   UNK N   1      10.019 -10.557   6.191  0.00  0.00     0.022 A 
HETATM    3  C   UNK N   1      10.287  -9.934   7.404  0.00  0.00     0.046 A 
HETATM    4  C   UNK N   1      11.323 -10.384   8.208  0.00  0.00     0.155 A 
HETATM    5  F   UNK N   1      11.566  -9.780   9.397  0.00  0.00    -0.203 F 
HETATM    6  C   UNK N   1      12.121 -11.448   7.793  0.00  0.00     0.164 A 
HETATM    7  F   UNK N   1      13.130 -11.848   8.608  0.00  0.00    -0.202 F 
HETATM    8  C   UNK N   1      11.887 -12.100   6.555  0.00  0.00     0.029 A 
ENDROOT
BRANCH   8   9
HETATM    9  C   UNK N   1      12.866 -13.199   6.142  0.00  0.00     0.158 C 
HETATM   10  C   UNK N   1      14.227 -12.607   5.765  0.00  0.00     0.039 C 
HETATM   11  C   UNK N   1      15.062 -13.836   5.906  0.00  0.00     0.029 C 
HETATM   12  C   UNK N   1      14.493 -14.358   7.213  0.00  0.00     0.168 C 
HETATM   13  O   UNK N   1      13.091 -14.138   7.182  0.00  0.00    -0.381 OA
ENDBRANCH   8   9
BRANCH   1  14
HETATM   14  C   UNK N   1      10.362 -12.279   4.439  0.00  0.00     0.176 C 
HETATM   15  O   UNK N   1      10.698 -11.751   3.385  0.00  0.00    -0.646 OA
BRANCH  14  16
HETATM   16  O   UNK N   1       9.545 -13.347   4.387  0.00  0.00    -0.773 OA
HETATM   17  H   UNK N   1       9.894 -14.249   4.351  0.00  0.00     0.167 HD
ENDBRANCH  14  16
ENDBRANCH   1  14
TORSDOF 3
ENDMDL
