MODEL 1
REMARK VINA RESULT:      -6.8      0.000      0.000
REMARK  3 active torsions:
REMARK  status: ('A' for Active; 'I' for Inactive)
REMARK    1  A    between atoms: O_2  and  C_3 
REMARK    2  A    between atoms: C_12  and  O_13 
REMARK    3  A    between atoms: C_14  and  N_15 
REMARK       I    between atoms: N_15  and  C_16 
ROOT
HETATM    1  C   UNK N   1      10.381  -5.011   1.225  0.00  0.00     0.141 A 
HETATM    2  C   UNK N   1      11.696  -4.805   0.788  0.00  0.00     0.152 A 
HETATM    3  F   UNK N   1      11.924  -4.319  -0.459  0.00  0.00    -0.203 F 
HETATM    4  C   UNK N   1      12.781  -5.102   1.615  0.00  0.00     0.046 A 
HETATM    5  C   UNK N   1      12.573  -5.610   2.897  0.00  0.00     0.015 A 
HETATM    6  C   UNK N   1      11.271  -5.812   3.372  0.00  0.00     0.004 A 
HETATM    7  C   UNK N   1      10.161  -5.520   2.535  0.00  0.00     0.113 A 
HETATM    8  O   UNK N   1       8.897  -5.727   2.994  0.00  0.00    -0.345 OA
HETATM    9  C   UNK N   1       8.607  -6.406   4.165  0.00  0.00     0.209 C 
HETATM   10  C   UNK N   1       9.613  -6.015   5.243  0.00  0.00     0.169 C 
HETATM   11  C   UNK N   1      11.043  -6.354   4.771  0.00  0.00     0.151 C 
ENDROOT
BRANCH  11  12
HETATM   12  N   UNK N   1      11.251  -7.798   4.778  0.00  0.00    -0.350 N 
HETATM   13  C   UNK N   1      11.836  -8.458   5.815  0.00  0.00     0.214 C 
HETATM   14  C   UNK N   1      11.960  -9.953   5.775  0.00  0.00     0.117 C 
HETATM   15  O   UNK N   1      12.232  -7.849   6.801  0.00  0.00    -0.274 OA
HETATM   16  H   UNK N   1      10.887  -8.353   3.986  0.00  0.00     0.163 HD
ENDBRANCH  11  12
BRANCH  10  17
HETATM   17  O   UNK N   1       9.314  -6.669   6.450  0.00  0.00    -0.391 OA
HETATM   18  H   UNK N   1       9.213  -5.961   7.139  0.00  0.00     0.210 HD
ENDBRANCH  10  17
BRANCH   1  19
HETATM   19  O   UNK N   1       9.376  -4.715   0.351  0.00  0.00    -0.350 OA
HETATM   20  C   UNK N   1       8.769  -5.563  -0.551  0.00  0.00     0.210 C 
ENDBRANCH   1  19
TORSDOF 3
ENDMDL
MODEL 2
REMARK VINA RESULT:      -6.4      2.913      5.743
REMARK  3 active torsions:
REMARK  status: ('A' for Active; 'I' for Inactive)
REMARK    1  A    between atoms: O_2  and  C_3 
REMARK    2  A    between atoms: C_12  and  O_13 
REMARK    3  A    between atoms: C_14  and  N_15 
REMARK       I    between atoms: N_15  and  C_16 
ROOT
HETATM    1  C   UNK N   1      10.348  -8.378   6.540  0.00  0.00     0.141 A 
HETATM    2  C   UNK N   1      10.334  -9.452   5.640  0.00  0.00     0.152 A 
HETATM    3  F   UNK N   1      10.667 -10.696   6.069  0.00  0.00    -0.203 F 
HETATM    4  C   UNK N   1       9.987  -9.260   4.301  0.00  0.00     0.046 A 
HETATM    5  C   UNK N   1       9.647  -7.990   3.835  0.00  0.00     0.015 A 
HETATM    6  C   UNK N   1       9.636  -6.898   4.712  0.00  0.00     0.004 A 
HETATM    7  C   UNK N   1       9.994  -7.082   6.074  0.00  0.00     0.113 A 
HETATM    8  O   UNK N   1       9.993  -6.017   6.921  0.00  0.00    -0.345 OA
HETATM    9  C   UNK N   1       9.863  -4.704   6.503  0.00  0.00     0.209 C 
HETATM   10  C   UNK N   1       8.824  -4.624   5.389  0.00  0.00     0.169 C 
HETATM   11  C   UNK N   1       9.256  -5.518   4.207  0.00  0.00     0.151 C 
ENDROOT
BRANCH  11  12
HETATM   12  N   UNK N   1      10.388  -4.922   3.507  0.00  0.00    -0.350 N 
HETATM   13  C   UNK N   1      10.499  -4.912   2.150  0.00  0.00     0.214 C 
HETATM   14  C   UNK N   1      11.664  -4.225   1.501  0.00  0.00     0.117 C 
HETATM   15  O   UNK N   1       9.638  -5.426   1.448  0.00  0.00    -0.274 OA
HETATM   16  H   UNK N   1      11.111  -4.435   4.062  0.00  0.00     0.163 HD
ENDBRANCH  11  12
BRANCH  10  17
HETATM   17  O   UNK N   1       8.654  -3.292   4.977  0.00  0.00    -0.391 OA
HETATM   18  H   UNK N   1       8.510  -3.315   3.995  0.00  0.00     0.210 HD
ENDBRANCH  10  17
BRANCH   1  19
HETATM   19  O   UNK N   1      10.716  -8.643   7.827  0.00  0.00    -0.350 OA
HETATM   20  C   UNK N   1       9.978  -9.291   8.796  0.00  0.00     0.210 C 
ENDBRANCH   1  19
TORSDOF 3
ENDMDL
MODEL 3
REMARK VINA RESULT:      -6.0      4.078      7.538
REMARK  3 active torsions:
REMARK  status: ('A' for Active; 'I' for Inactive)
REMARK    1  A    between atoms: O_2  and  C_3 
REMARK    2  A    between atoms: C_12  and  O_13 
REMARK    3  A    between atoms: C_14  and  N_15 
REMARK       I    between atoms: N_15  and  C_16 
ROOT
HETATM    1  C   UNK N   1      13.133 -12.668   6.651  0.00  0.00     0.141 A 
HETATM    2  C   UNK N   1      13.143 -13.077   5.311  0.00  0.00     0.152 A 
HETATM    3  F   UNK N   1      13.932 -14.113   4.929  0.00  0.00    -0.203 F 
HETATM    4  C   UNK N   1      12.355 -12.428   4.358  0.00  0.00     0.046 A 
HETATM    5  C   UNK N   1      11.542 -11.357   4.725  0.00  0.00     0.015 A 
HETATM    6  C   UNK N   1      11.496 -10.932   6.058  0.00  0.00     0.004 A 
HETATM    7  C   UNK N   1      12.298 -11.581   7.034  0.00  0.00     0.113 A 
HETATM    8  O   UNK N   1      12.260 -11.159   8.328  0.00  0.00    -0.345 OA
HETATM    9  C   UNK N   1      11.639  -9.992   8.736  0.00  0.00     0.209 C 
HETATM   10  C   UNK N   1      10.327  -9.820   7.978  0.00  0.00     0.169 C 
HETATM   11  C   UNK N   1      10.602  -9.773   6.460  0.00  0.00     0.151 C 
ENDROOT
BRANCH  11  12
HETATM   12  N   UNK N   1      11.241  -8.512   6.099  0.00  0.00    -0.350 N 
HETATM   13  C   UNK N   1      10.875  -7.781   5.010  0.00  0.00     0.214 C 
HETATM   14  C   UNK N   1      11.539  -6.463   4.739  0.00  0.00     0.117 C 
HETATM   15  O   UNK N   1       9.983  -8.169   4.267  0.00  0.00    -0.274 OA
HETATM   16  H   UNK N   1      11.964  -8.128   6.728  0.00  0.00     0.163 HD
ENDBRANCH  11  12
BRANCH  10  17
HETATM   17  O   UNK N   1       9.666  -8.657   8.406  0.00  0.00    -0.391 OA
HETATM   18  H   UNK N   1       8.864  -8.558   7.830  0.00  0.00     0.210 HD
ENDBRANCH  10  17
BRANCH   1  19
HETATM   19  O   UNK N   1      13.944 -13.339   7.519  0.00  0.00    -0.350 OA
HETATM   20  C   UNK N   1      13.821 -14.646   7.943  0.00  0.00     0.210 C 
ENDBRANCH   1  19
TORSDOF 3
ENDMDL
MODEL 4
REMARK VINA RESULT:      -5.8      4.661      7.276
REMARK  3 active torsions:
REMARK  status: ('A' for Active; 'I' for Inactive)
REMARK    1  A    between atoms: O_2  and  C_3 
REMARK    2  A    between atoms: C_12  and  O_13 
REMARK    3  A    between atoms: C_14  and  N_15 
REMARK       I    between atoms: N_15  and  C_16 
ROOT
HETATM    1  C   UNK N   1      10.526 -10.168   5.943  0.00  0.00     0.141 A 
HETATM    2  C   UNK N   1      10.784  -9.903   7.295  0.00  0.00     0.152 A 
HETATM    3  F   UNK N   1      10.194  -8.839   7.896  0.00  0.00    -0.203 F 
HETATM    4  C   UNK N   1      11.646 -10.716   8.033  0.00  0.00     0.046 A 
HETATM    5  C   UNK N   1      12.269 -11.811   7.434  0.00  0.00     0.015 A 
HETATM    6  C   UNK N   1      12.021 -12.114   6.089  0.00  0.00     0.004 A 
HETATM    7  C   UNK N   1      11.151 -11.289   5.329  0.00  0.00     0.113 A 
HETATM    8  O   UNK N   1      10.921 -11.579   4.019  0.00  0.00    -0.345 OA
HETATM    9  C   UNK N   1      11.642 -12.518   3.302  0.00  0.00     0.209 C 
HETATM   10  C   UNK N   1      11.907 -13.737   4.180  0.00  0.00     0.169 C 
HETATM   11  C   UNK N   1      12.691 -13.312   5.441  0.00  0.00     0.151 C 
ENDROOT
BRANCH  11  12
HETATM   12  N   UNK N   1      14.067 -12.978   5.094  0.00  0.00    -0.350 N 
HETATM   13  C   UNK N   1      15.142 -13.455   5.780  0.00  0.00     0.214 C 
HETATM   14  C   UNK N   1      16.530 -13.114   5.325  0.00  0.00     0.117 C 
HETATM   15  O   UNK N   1      14.990 -14.190   6.747  0.00  0.00    -0.274 OA
HETATM   16  H   UNK N   1      14.238 -12.399   4.255  0.00  0.00     0.163 HD
ENDBRANCH  11  12
BRANCH  10  17
HETATM   17  O   UNK N   1      12.609 -14.715   3.457  0.00  0.00    -0.391 OA
HETATM   18  H   UNK N   1      13.313 -15.066   4.063  0.00  0.00     0.210 HD
ENDBRANCH  10  17
BRANCH   1  19
HETATM   19  O   UNK N   1       9.687  -9.317   5.285  0.00  0.00    -0.350 OA
HETATM   20  C   UNK N   1      10.028  -8.199   4.554  0.00  0.00     0.210 C 
ENDBRANCH   1  19
TORSDOF 3
ENDMDL
MODEL 5
REMARK VINA RESULT:      -5.8      1.897      2.280
REMARK  3 active torsions:
REMARK  status: ('A' for Active; 'I' for Inactive)
REMARK    1  A    between atoms: O_2  and  C_3 
REMARK    2  A    between atoms: C_12  and  O_13 
REMARK    3  A    between atoms: C_14  and  N_15 
REMARK       I    between atoms: N_15  and  C_16 
ROOT
HETATM    1  C   UNK N   1      11.465  -3.864   0.387  0.00  0.00     0.141 A 
HETATM    2  C   UNK N   1      12.772  -4.370   0.363  0.00  0.00     0.152 A 
HETATM    3  F   UNK N   1      13.536  -4.209  -0.747  0.00  0.00    -0.203 F 
HETATM    4  C   UNK N   1      13.299  -5.047   1.464  0.00  0.00     0.046 A 
HETATM    5  C   UNK N   1      12.530  -5.231   2.613  0.00  0.00     0.015 A 
HETATM    6  C   UNK N   1      11.226  -4.724   2.677  0.00  0.00     0.004 A 
HETATM    7  C   UNK N   1      10.679  -4.041   1.559  0.00  0.00     0.113 A 
HETATM    8  O   UNK N   1       9.408  -3.559   1.620  0.00  0.00    -0.345 OA
HETATM    9  C   UNK N   1       8.517  -3.867   2.634  0.00  0.00     0.209 C 
HETATM   10  C   UNK N   1       9.252  -3.878   3.971  0.00  0.00     0.169 C 
HETATM   11  C   UNK N   1      10.393  -4.916   3.932  0.00  0.00     0.151 C 
ENDROOT
BRANCH  11  12
HETATM   12  N   UNK N   1       9.850  -6.269   3.959  0.00  0.00    -0.350 N 
HETATM   13  C   UNK N   1      10.386  -7.268   4.713  0.00  0.00     0.214 C 
HETATM   14  C   UNK N   1       9.733  -8.619   4.735  0.00  0.00     0.117 C 
HETATM   15  O   UNK N   1      11.376  -7.068   5.404  0.00  0.00    -0.274 OA
HETATM   16  H   UNK N   1       8.986  -6.465   3.427  0.00  0.00     0.163 HD
ENDBRANCH  11  12
BRANCH  10  17
HETATM   17  O   UNK N   1       8.356  -4.154   5.017  0.00  0.00    -0.391 OA
HETATM   18  H   UNK N   1       7.673  -4.774   4.649  0.00  0.00     0.210 HD
ENDBRANCH  10  17
BRANCH   1  19
HETATM   19  O   UNK N   1      11.016  -3.232  -0.735  0.00  0.00    -0.350 OA
HETATM   20  C   UNK N   1      11.111  -1.890  -1.038  0.00  0.00     0.210 C 
ENDBRANCH   1  19
TORSDOF 3
ENDMDL
MODEL 6
REMARK VINA RESULT:      -5.4      4.525      5.429
REMARK  3 active torsions:
REMARK  status: ('A' for Active; 'I' for Inactive)
REMARK    1  A    between atoms: O_2  and  C_3 
REMARK    2  A    between atoms: C_12  and  O_13 
REMARK    3  A    between atoms: C_14  and  N_15 
REMARK       I    between atoms: N_15  and  C_16 
ROOT
HETATM    1  C   UNK N   1       9.347  -0.255   3.403  0.00  0.00     0.141 A 
HETATM    2  C   UNK N   1      10.369   0.560   3.911  0.00  0.00     0.152 A 
HETATM    3  F   UNK N   1      10.099   1.845   4.251  0.00  0.00    -0.203 F 
HETATM    4  C   UNK N   1      11.666   0.068   4.067  0.00  0.00     0.046 A 
HETATM    5  C   UNK N   1      11.969  -1.248   3.719  0.00  0.00     0.015 A 
HETATM    6  C   UNK N   1      10.969  -2.093   3.224  0.00  0.00     0.004 A 
HETATM    7  C   UNK N   1       9.647  -1.600   3.055  0.00  0.00     0.113 A 
HETATM    8  O   UNK N   1       8.679  -2.421   2.562  0.00  0.00    -0.345 OA
HETATM    9  C   UNK N   1       8.934  -3.665   2.012  0.00  0.00     0.209 C 
HETATM   10  C   UNK N   1      10.005  -4.376   2.833  0.00  0.00     0.169 C 
HETATM   11  C   UNK N   1      11.296  -3.529   2.854  0.00  0.00     0.151 C 
ENDROOT
BRANCH  11  12
HETATM   12  N   UNK N   1      11.947  -3.565   1.550  0.00  0.00    -0.350 N 
HETATM   13  C   UNK N   1      12.932  -4.452   1.236  0.00  0.00     0.214 C 
HETATM   14  C   UNK N   1      13.511  -4.466  -0.147  0.00  0.00     0.117 C 
HETATM   15  O   UNK N   1      13.327  -5.265   2.062  0.00  0.00    -0.274 OA
HETATM   16  H   UNK N   1      11.608  -2.927   0.811  0.00  0.00     0.163 HD
ENDBRANCH  11  12
BRANCH  10  17
HETATM   17  O   UNK N   1      10.252  -5.656   2.309  0.00  0.00    -0.391 OA
HETATM   18  H   UNK N   1      11.236  -5.735   2.206  0.00  0.00     0.210 HD
ENDBRANCH  10  17
BRANCH   1  19
HETATM   19  O   UNK N   1       8.111   0.304   3.263  0.00  0.00    -0.350 OA
HETATM   20  C   UNK N   1       7.607   0.964   2.162  0.00  0.00     0.210 C 
ENDBRANCH   1  19
TORSDOF 3
ENDMDL
MODEL 7
REMARK VINA RESULT:      -5.4      2.937      6.019
REMARK  3 active torsions:
REMARK  status: ('A' for Active; 'I' for Inactive)
REMARK    1  A    between atoms: O_2  and  C_3 
REMARK    2  A    between atoms: C_12  and  O_13 
REMARK    3  A    between atoms: C_14  and  N_15 
REMARK       I    between atoms: N_15  and  C_16 
ROOT
HETATM    1  C   UNK N   1      10.918  -5.875   5.289  0.00  0.00     0.141 A 
HETATM    2  C   UNK N   1       9.762  -5.444   5.953  0.00  0.00     0.152 A 
HETATM    3  F   UNK N   1       9.411  -6.014   7.133  0.00  0.00    -0.203 F 
HETATM    4  C   UNK N   1       8.958  -4.438   5.412  0.00  0.00     0.046 A 
HETATM    5  C   UNK N   1       9.294  -3.843   4.197  0.00  0.00     0.015 A 
HETATM    6  C   UNK N   1      10.452  -4.238   3.515  0.00  0.00     0.004 A 
HETATM    7  C   UNK N   1      11.272  -5.265   4.054  0.00  0.00     0.113 A 
HETATM    8  O   UNK N   1      12.391  -5.656   3.384  0.00  0.00    -0.345 OA
HETATM    9  C   UNK N   1      12.688  -5.261   2.090  0.00  0.00     0.209 C 
HETATM   10  C   UNK N   1      12.327  -3.790   1.910  0.00  0.00     0.169 C 
HETATM   11  C   UNK N   1      10.824  -3.582   2.198  0.00  0.00     0.151 C 
ENDROOT
BRANCH  11  12
HETATM   12  N   UNK N   1      10.019  -4.149   1.122  0.00  0.00    -0.350 N 
HETATM   13  C   UNK N   1       9.220  -3.395   0.317  0.00  0.00     0.214 C 
HETATM   14  C   UNK N   1       8.467  -4.043  -0.807  0.00  0.00     0.117 C 
HETATM   15  O   UNK N   1       9.135  -2.184   0.478  0.00  0.00    -0.274 OA
HETATM   16  H   UNK N   1      10.100  -5.160   0.924  0.00  0.00     0.163 HD
ENDBRANCH  11  12
BRANCH  10  17
HETATM   17  O   UNK N   1      12.654  -3.364   0.613  0.00  0.00    -0.391 OA
HETATM   18  H   UNK N   1      13.410  -2.727   0.705  0.00  0.00     0.210 HD
ENDBRANCH  10  17
BRANCH   1  19
HETATM   19  O   UNK N   1      11.641  -6.875   5.872  0.00  0.00    -0.350 OA
HETATM   20  C   UNK N   1      11.512  -8.233   5.668  0.00  0.00     0.210 C 
ENDBRANCH   1  19
TORSDOF 3
ENDMDL
MODEL 8
REMARK VINA RESULT:      -5.3      4.761      7.069
REMARK  3 active torsions:
REMARK  status: ('A' for Active; 'I' for Inactive)
REMARK    1  A    between atoms: O_2  and  C_3 
REMARK    2  A    between atoms: C_12  and  O_13 
REMARK    3  A    between atoms: C_14  and  N_15 
REMARK       I    between atoms: N_15  and  C_16 
ROOT
HETATM    1  C   UNK N   1      11.135  -9.335   6.992  0.00  0.00     0.141 A 
HETATM    2  C   UNK N   1      10.467  -8.350   6.251  0.00  0.00     0.152 A 
HETATM    3  F   UNK N   1       9.995  -7.242   6.875  0.00  0.00    -0.203 F 
HETATM    4  C   UNK N   1      10.273  -8.497   4.876  0.00  0.00     0.046 A 
HETATM    5  C   UNK N   1      10.744  -9.630   4.214  0.00  0.00     0.015 A 
HETATM    6  C   UNK N   1      11.430 -10.625   4.921  0.00  0.00     0.004 A 
HETATM    7  C   UNK N   1      11.626 -10.489   6.321  0.00  0.00     0.113 A 
HETATM    8  O   UNK N   1      12.283 -11.463   7.008  0.00  0.00    -0.345 OA
HETATM    9  C   UNK N   1      12.605 -12.697   6.471  0.00  0.00     0.209 C 
HETATM   10  C   UNK N   1      13.069 -12.521   5.029  0.00  0.00     0.169 C 
HETATM   11  C   UNK N   1      11.952 -11.854   4.198  0.00  0.00     0.151 C 
ENDROOT
BRANCH  11  12
HETATM   12  N   UNK N   1      10.858 -12.793   3.973  0.00  0.00    -0.350 N 
HETATM   13  C   UNK N   1      10.252 -12.949   2.764  0.00  0.00     0.214 C 
HETATM   14  C   UNK N   1       9.174 -13.979   2.596  0.00  0.00     0.117 C 
HETATM   15  O   UNK N   1      10.602 -12.282   1.798  0.00  0.00    -0.274 OA
HETATM   16  H   UNK N   1      10.568 -13.408   4.750  0.00  0.00     0.163 HD
ENDBRANCH  11  12
BRANCH  10  17
HETATM   17  O   UNK N   1      13.433 -13.761   4.479  0.00  0.00    -0.391 OA
HETATM   18  H   UNK N   1      12.590 -14.260   4.320  0.00  0.00     0.210 HD
ENDBRANCH  10  17
BRANCH   1  19
HETATM   19  O   UNK N   1      11.269  -9.128   8.334  0.00  0.00    -0.350 OA
HETATM   20  C   UNK N   1      10.418  -9.542   9.337  0.00  0.00     0.210 C 
ENDBRANCH   1  19
TORSDOF 3
ENDMDL
MODEL 9
REMARK VINA RESULT:      -5.2      4.075      6.342
REMARK  3 active torsions:
REMARK  status: ('A' for Active; 'I' for Inactive)
REMARK    1  A    between atoms: O_2  and  C_3 
REMARK    2  A    between atoms: C_12  and  O_13 
REMARK    3  A    between atoms: C_14  and  N_15 
REMARK       I    between atoms: N_15  and  C_16 
ROOT
HETATM    1  C   UNK N   1       9.345  -3.978   4.235  0.00  0.00     0.141 A 
HETATM    2  C   UNK N   1       8.572  -4.583   3.235  0.00  0.00     0.152 A 
HETATM    3  F   UNK N   1       7.769  -5.632   3.546  0.00  0.00    -0.203 F 
HETATM    4  C   UNK N   1       8.621  -4.126   1.916  0.00  0.00     0.046 A 
HETATM    5  C   UNK N   1       9.444  -3.055   1.572  0.00  0.00     0.015 A 
HETATM    6  C   UNK N   1      10.217  -2.417   2.550  0.00  0.00     0.004 A 
HETATM    7  C   UNK N   1      10.179  -2.879   3.892  0.00  0.00     0.113 A 
HETATM    8  O   UNK N   1      10.940  -2.264   4.839  0.00  0.00    -0.345 OA
HETATM    9  C   UNK N   1      11.923  -1.333   4.549  0.00  0.00     0.209 C 
HETATM   10  C   UNK N   1      11.439  -0.412   3.433  0.00  0.00     0.169 C 
HETATM   11  C   UNK N   1      11.106  -1.243   2.176  0.00  0.00     0.151 C 
ENDROOT
BRANCH  11  12
HETATM   12  N   UNK N   1      12.330  -1.733   1.552  0.00  0.00    -0.350 N 
HETATM   13  C   UNK N   1      12.608  -1.563   0.230  0.00  0.00     0.214 C 
HETATM   14  C   UNK N   1      13.916  -2.042  -0.325  0.00  0.00     0.117 C 
HETATM   15  O   UNK N   1      11.816  -0.990  -0.507  0.00  0.00    -0.274 OA
HETATM   16  H   UNK N   1      13.044  -2.179   2.151  0.00  0.00     0.163 HD
ENDBRANCH  11  12
BRANCH  10  17
HETATM   17  O   UNK N   1      12.410   0.562   3.150  0.00  0.00    -0.391 OA
HETATM   18  H   UNK N   1      13.256   0.248   3.564  0.00  0.00     0.210 HD
ENDBRANCH  10  17
BRANCH   1  19
HETATM   19  O   UNK N   1       9.256  -4.494   5.495  0.00  0.00    -0.350 OA
HETATM   20  C   UNK N   1       9.986  -5.534   6.031  0.00  0.00     0.210 C 
ENDBRANCH   1  19
TORSDOF 3
ENDMDL
