MODEL 1
REMARK VINA RESULT:      -6.4      0.000      0.000
REMARK  4 active torsions:
REMARK  status: ('A' for Active; 'I' for Inactive)
REMARK    1  A    between atoms: C_2  and  O_3 
REMARK    2  A    between atoms: C_2  and  C_4 
REMARK    3  A    between atoms: C_5  and  O_6 
REMARK    4  A    between atoms: O_6  and  C_7 
ROOT
HETATM    1  C   UNK N   1      10.667  -4.387   4.595  0.00  0.00     0.113 A 
HETATM    2  C   UNK N   1      11.028  -5.700   4.187  0.00  0.00     0.098 A 
HETATM    3  C   UNK N   1      11.918  -5.864   3.102  0.00  0.00     0.041 A 
HETATM    4  C   UNK N   1      12.438  -4.757   2.436  0.00  0.00     0.048 A 
HETATM    5  C   UNK N   1      12.083  -3.471   2.830  0.00  0.00     0.156 A 
HETATM    6  F   UNK N   1      12.599  -2.400   2.177  0.00  0.00    -0.203 F 
HETATM    7  C   UNK N   1      11.202  -3.279   3.896  0.00  0.00     0.174 A 
HETATM    8  F   UNK N   1      10.887  -2.008   4.256  0.00  0.00    -0.202 F 
ENDROOT
BRANCH   2   9
HETATM    9  O   UNK N   1      10.501  -6.773   4.842  0.00  0.00    -0.254 OA
BRANCH   9  10
HETATM   10  C   UNK N   1      11.197  -7.710   5.587  0.00  0.00     0.530 C 
HETATM   11  F   UNK N   1      10.418  -8.169   6.634  0.00  0.00    -0.144 F 
HETATM   12  F   UNK N   1      11.586  -8.769   4.786  0.00  0.00    -0.144 F 
HETATM   13  F   UNK N   1      12.327  -7.112   6.110  0.00  0.00    -0.144 F 
ENDBRANCH   9  10
ENDBRANCH   2   9
BRANCH   1  14
HETATM   14  C   UNK N   1       9.742  -4.164   5.750  0.00  0.00     0.182 C 
HETATM   15  O   UNK N   1       8.680  -3.579   5.585  0.00  0.00    -0.646 OA
BRANCH  14  16
HETATM   16  O   UNK N   1      10.078  -4.576   6.991  0.00  0.00    -0.772 OA
HETATM   17  H   UNK N   1       9.646  -5.340   7.398  0.00  0.00     0.167 HD
ENDBRANCH  14  16
ENDBRANCH   1  14
TORSDOF 4
ENDMDL
MODEL 2
REMARK VINA RESULT:      -6.1      1.551      4.469
REMARK  4 active torsions:
REMARK  status: ('A' for Active; 'I' for Inactive)
REMARK    1  A    between atoms: C_2  and  O_3 
REMARK    2  A    between atoms: C_2  and  C_4 
REMARK    3  A    between atoms: C_5  and  O_6 
REMARK    4  A    between atoms: O_6  and  C_7 
ROOT
HETATM    1  C   UNK N   1      10.373  -4.774   5.130  0.00  0.00     0.113 A 
HETATM    2  C   UNK N   1      11.004  -4.059   4.076  0.00  0.00     0.098 A 
HETATM    3  C   UNK N   1      11.830  -4.759   3.167  0.00  0.00     0.041 A 
HETATM    4  C   UNK N   1      12.025  -6.132   3.297  0.00  0.00     0.048 A 
HETATM    5  C   UNK N   1      11.412  -6.833   4.331  0.00  0.00     0.156 A 
HETATM    6  F   UNK N   1      11.607  -8.171   4.446  0.00  0.00    -0.203 F 
HETATM    7  C   UNK N   1      10.595  -6.166   5.246  0.00  0.00     0.174 A 
HETATM    8  F   UNK N   1      10.007  -6.887   6.235  0.00  0.00    -0.202 F 
ENDROOT
BRANCH   2   9
HETATM    9  O   UNK N   1      10.812  -2.714   3.969  0.00  0.00    -0.254 OA
BRANCH   9  10
HETATM   10  C   UNK N   1       9.927  -2.071   3.120  0.00  0.00     0.530 C 
HETATM   11  F   UNK N   1       8.908  -2.930   2.746  0.00  0.00    -0.144 F 
HETATM   12  F   UNK N   1       9.401  -0.949   3.734  0.00  0.00    -0.144 F 
HETATM   13  F   UNK N   1      10.607  -1.677   1.984  0.00  0.00    -0.144 F 
ENDBRANCH   9  10
ENDBRANCH   2   9
BRANCH   1  14
HETATM   14  C   UNK N   1       9.476  -4.078   6.105  0.00  0.00     0.182 C 
HETATM   15  O   UNK N   1       8.290  -3.920   5.847  0.00  0.00    -0.646 OA
BRANCH  14  16
HETATM   16  O   UNK N   1       9.965  -3.589   7.264  0.00  0.00    -0.772 OA
HETATM   17  H   UNK N   1      10.906  -3.384   7.363  0.00  0.00     0.167 HD
ENDBRANCH  14  16
ENDBRANCH   1  14
TORSDOF 4
ENDMDL
MODEL 3
REMARK VINA RESULT:      -6.0      3.846      6.642
REMARK  4 active torsions:
REMARK  status: ('A' for Active; 'I' for Inactive)
REMARK    1  A    between atoms: C_2  and  O_3 
REMARK    2  A    between atoms: C_2  and  C_4 
REMARK    3  A    between atoms: C_5  and  O_6 
REMARK    4  A    between atoms: O_6  and  C_7 
ROOT
HETATM    1  C   UNK N   1      11.335 -10.313   7.320  0.00  0.00     0.113 A 
HETATM    2  C   UNK N   1      11.035  -9.953   5.978  0.00  0.00     0.098 A 
HETATM    3  C   UNK N   1      11.687 -10.629   4.921  0.00  0.00     0.041 A 
HETATM    4  C   UNK N   1      12.611 -11.637   5.185  0.00  0.00     0.048 A 
HETATM    5  C   UNK N   1      12.910 -11.988   6.498  0.00  0.00     0.156 A 
HETATM    6  F   UNK N   1      13.809 -12.973   6.744  0.00  0.00    -0.203 F 
HETATM    7  C   UNK N   1      12.284 -11.333   7.562  0.00  0.00     0.174 A 
HETATM    8  F   UNK N   1      12.596 -11.712   8.828  0.00  0.00    -0.202 F 
ENDROOT
BRANCH   2   9
HETATM    9  O   UNK N   1      10.137  -8.956   5.736  0.00  0.00    -0.254 OA
BRANCH   9  10
HETATM   10  C   UNK N   1      10.428  -7.649   5.387  0.00  0.00     0.530 C 
HETATM   11  F   UNK N   1      10.436  -7.507   4.011  0.00  0.00    -0.144 F 
HETATM   12  F   UNK N   1       9.505  -6.784   5.948  0.00  0.00    -0.144 F 
HETATM   13  F   UNK N   1      11.683  -7.329   5.868  0.00  0.00    -0.144 F 
ENDBRANCH   9  10
ENDBRANCH   2   9
BRANCH   1  14
HETATM   14  C   UNK N   1      10.657  -9.637   8.470  0.00  0.00     0.182 C 
HETATM   15  O   UNK N   1      11.320  -9.090   9.341  0.00  0.00    -0.646 OA
BRANCH  14  16
HETATM   16  O   UNK N   1       9.312  -9.647   8.580  0.00  0.00    -0.772 OA
HETATM   17  H   UNK N   1       8.877 -10.016   9.362  0.00  0.00     0.167 HD
ENDBRANCH  14  16
ENDBRANCH   1  14
TORSDOF 4
ENDMDL
MODEL 4
REMARK VINA RESULT:      -6.0      2.243      3.168
REMARK  4 active torsions:
REMARK  status: ('A' for Active; 'I' for Inactive)
REMARK    1  A    between atoms: C_2  and  O_3 
REMARK    2  A    between atoms: C_2  and  C_4 
REMARK    3  A    between atoms: C_5  and  O_6 
REMARK    4  A    between atoms: O_6  and  C_7 
ROOT
HETATM    1  C   UNK N   1      11.840  -3.047   3.499  0.00  0.00     0.113 A 
HETATM    2  C   UNK N   1      11.382  -4.295   4.002  0.00  0.00     0.098 A 
HETATM    3  C   UNK N   1      11.700  -5.480   3.301  0.00  0.00     0.041 A 
HETATM    4  C   UNK N   1      12.455  -5.432   2.131  0.00  0.00     0.048 A 
HETATM    5  C   UNK N   1      12.901  -4.211   1.634  0.00  0.00     0.156 A 
HETATM    6  F   UNK N   1      13.638  -4.176   0.496  0.00  0.00    -0.203 F 
HETATM    7  C   UNK N   1      12.596  -3.024   2.304  0.00  0.00     0.174 A 
HETATM    8  F   UNK N   1      13.058  -1.854   1.792  0.00  0.00    -0.202 F 
ENDROOT
BRANCH   2   9
HETATM    9  O   UNK N   1      10.634  -4.324   5.143  0.00  0.00    -0.254 OA
BRANCH   9  10
HETATM   10  C   UNK N   1       9.270  -4.540   5.230  0.00  0.00     0.530 C 
HETATM   11  F   UNK N   1       8.734  -3.817   6.281  0.00  0.00    -0.144 F 
HETATM   12  F   UNK N   1       8.650  -4.186   4.045  0.00  0.00    -0.144 F 
HETATM   13  F   UNK N   1       9.046  -5.884   5.462  0.00  0.00    -0.144 F 
ENDBRANCH   9  10
ENDBRANCH   2   9
BRANCH   1  14
HETATM   14  C   UNK N   1      11.542  -1.769   4.218  0.00  0.00     0.182 C 
HETATM   15  O   UNK N   1      10.460  -1.216   4.068  0.00  0.00    -0.646 OA
BRANCH  14  16
HETATM   16  O   UNK N   1      12.468  -1.192   5.012  0.00  0.00    -0.772 OA
HETATM   17  H   UNK N   1      12.997  -1.720   5.628  0.00  0.00     0.167 HD
ENDBRANCH  14  16
ENDBRANCH   1  14
TORSDOF 4
ENDMDL
MODEL 5
REMARK VINA RESULT:      -5.9      2.223      4.237
REMARK  4 active torsions:
REMARK  status: ('A' for Active; 'I' for Inactive)
REMARK    1  A    between atoms: C_2  and  O_3 
REMARK    2  A    between atoms: C_2  and  C_4 
REMARK    3  A    between atoms: C_5  and  O_6 
REMARK    4  A    between atoms: O_6  and  C_7 
ROOT
HETATM    1  C   UNK N   1      10.688  -4.204   4.621  0.00  0.00     0.113 A 
HETATM    2  C   UNK N   1      11.555  -4.896   3.733  0.00  0.00     0.098 A 
HETATM    3  C   UNK N   1      11.734  -6.289   3.890  0.00  0.00     0.041 A 
HETATM    4  C   UNK N   1      11.071  -6.981   4.901  0.00  0.00     0.048 A 
HETATM    5  C   UNK N   1      10.225  -6.304   5.775  0.00  0.00     0.156 A 
HETATM    6  F   UNK N   1       9.582  -6.989   6.754  0.00  0.00    -0.203 F 
HETATM    7  C   UNK N   1      10.034  -4.927   5.645  0.00  0.00     0.174 A 
HETATM    8  F   UNK N   1       9.193  -4.306   6.512  0.00  0.00    -0.202 F 
ENDROOT
BRANCH   2   9
HETATM    9  O   UNK N   1      12.206  -4.203   2.755  0.00  0.00    -0.254 OA
BRANCH   9  10
HETATM   10  C   UNK N   1      12.363  -4.588   1.435  0.00  0.00     0.530 C 
HETATM   11  F   UNK N   1      13.516  -5.340   1.287  0.00  0.00    -0.144 F 
HETATM   12  F   UNK N   1      11.265  -5.314   1.012  0.00  0.00    -0.144 F 
HETATM   13  F   UNK N   1      12.474  -3.456   0.651  0.00  0.00    -0.144 F 
ENDBRANCH   9  10
ENDBRANCH   2   9
BRANCH   1  14
HETATM   14  C   UNK N   1      10.454  -2.732   4.481  0.00  0.00     0.182 C 
HETATM   15  O   UNK N   1       9.357  -2.313   4.135  0.00  0.00    -0.646 OA
BRANCH  14  16
HETATM   16  O   UNK N   1      11.452  -1.852   4.702  0.00  0.00    -0.772 OA
HETATM   17  H   UNK N   1      11.400  -0.943   4.373  0.00  0.00     0.167 HD
ENDBRANCH  14  16
ENDBRANCH   1  14
TORSDOF 4
ENDMDL
MODEL 6
REMARK VINA RESULT:      -5.8      1.802      2.078
REMARK  4 active torsions:
REMARK  status: ('A' for Active; 'I' for Inactive)
REMARK    1  A    between atoms: C_2  and  O_3 
REMARK    2  A    between atoms: C_2  and  C_4 
REMARK    3  A    between atoms: C_5  and  O_6 
REMARK    4  A    between atoms: O_6  and  C_7 
ROOT
HETATM    1  C   UNK N   1       9.992  -4.517   3.301  0.00  0.00     0.113 A 
HETATM    2  C   UNK N   1      10.980  -5.296   3.963  0.00  0.00     0.098 A 
HETATM    3  C   UNK N   1      12.145  -5.675   3.258  0.00  0.00     0.041 A 
HETATM    4  C   UNK N   1      12.330  -5.291   1.932  0.00  0.00     0.048 A 
HETATM    5  C   UNK N   1      11.362  -4.533   1.280  0.00  0.00     0.156 A 
HETATM    6  F   UNK N   1      11.553  -4.161  -0.010  0.00  0.00    -0.203 F 
HETATM    7  C   UNK N   1      10.199  -4.149   1.951  0.00  0.00     0.174 A 
HETATM    8  F   UNK N   1       9.283  -3.401   1.283  0.00  0.00    -0.202 F 
ENDROOT
BRANCH   2   9
HETATM    9  O   UNK N   1      10.780  -5.673   5.258  0.00  0.00    -0.254 OA
BRANCH   9  10
HETATM   10  C   UNK N   1      10.495  -6.950   5.711  0.00  0.00     0.530 C 
HETATM   11  F   UNK N   1       9.856  -7.680   4.725  0.00  0.00    -0.144 F 
HETATM   12  F   UNK N   1      11.657  -7.593   6.099  0.00  0.00    -0.144 F 
HETATM   13  F   UNK N   1       9.654  -6.858   6.803  0.00  0.00    -0.144 F 
ENDBRANCH   9  10
ENDBRANCH   2   9
BRANCH   1  14
HETATM   14  C   UNK N   1       8.751  -4.079   4.013  0.00  0.00     0.182 C 
HETATM   15  O   UNK N   1       7.651  -4.429   3.605  0.00  0.00    -0.646 OA
BRANCH  14  16
HETATM   16  O   UNK N   1       8.824  -3.270   5.091  0.00  0.00    -0.772 OA
HETATM   17  H   UNK N   1       8.406  -2.397   5.090  0.00  0.00     0.167 HD
ENDBRANCH  14  16
ENDBRANCH   1  14
TORSDOF 4
ENDMDL
MODEL 7
REMARK VINA RESULT:      -5.7      2.485      4.377
REMARK  4 active torsions:
REMARK  status: ('A' for Active; 'I' for Inactive)
REMARK    1  A    between atoms: C_2  and  O_3 
REMARK    2  A    between atoms: C_2  and  C_4 
REMARK    3  A    between atoms: C_5  and  O_6 
REMARK    4  A    between atoms: O_6  and  C_7 
ROOT
HETATM    1  C   UNK N   1       9.991  -4.435   4.117  0.00  0.00     0.113 A 
HETATM    2  C   UNK N   1      11.130  -3.775   3.580  0.00  0.00     0.098 A 
HETATM    3  C   UNK N   1      11.515  -4.039   2.247  0.00  0.00     0.041 A 
HETATM    4  C   UNK N   1      10.791  -4.933   1.462  0.00  0.00     0.048 A 
HETATM    5  C   UNK N   1       9.679  -5.585   1.986  0.00  0.00     0.156 A 
HETATM    6  F   UNK N   1       8.979  -6.451   1.212  0.00  0.00    -0.203 F 
HETATM    7  C   UNK N   1       9.279  -5.346   3.303  0.00  0.00     0.174 A 
HETATM    8  F   UNK N   1       8.183  -5.995   3.774  0.00  0.00    -0.202 F 
ENDROOT
BRANCH   2   9
HETATM    9  O   UNK N   1      11.835  -2.911   4.365  0.00  0.00    -0.254 OA
BRANCH   9  10
HETATM   10  C   UNK N   1      11.966  -1.546   4.179  0.00  0.00     0.530 C 
HETATM   11  F   UNK N   1      12.172  -0.912   5.392  0.00  0.00    -0.144 F 
HETATM   12  F   UNK N   1      13.014  -1.275   3.319  0.00  0.00    -0.144 F 
HETATM   13  F   UNK N   1      10.799  -1.058   3.622  0.00  0.00    -0.144 F 
ENDBRANCH   9  10
ENDBRANCH   2   9
BRANCH   1  14
HETATM   14  C   UNK N   1       9.537  -4.174   5.518  0.00  0.00     0.182 C 
HETATM   15  O   UNK N   1       8.529  -3.511   5.725  0.00  0.00    -0.646 OA
BRANCH  14  16
HETATM   16  O   UNK N   1      10.244  -4.637   6.570  0.00  0.00    -0.772 OA
HETATM   17  H   UNK N   1      11.117  -5.038   6.449  0.00  0.00     0.167 HD
ENDBRANCH  14  16
ENDBRANCH   1  14
TORSDOF 4
ENDMDL
MODEL 8
REMARK VINA RESULT:      -5.4      2.472      2.987
REMARK  4 active torsions:
REMARK  status: ('A' for Active; 'I' for Inactive)
REMARK    1  A    between atoms: C_2  and  O_3 
REMARK    2  A    between atoms: C_2  and  C_4 
REMARK    3  A    between atoms: C_5  and  O_6 
REMARK    4  A    between atoms: O_6  and  C_7 
ROOT
HETATM    1  C   UNK N   1      11.643  -3.247   3.107  0.00  0.00     0.113 A 
HETATM    2  C   UNK N   1      11.391  -4.632   2.908  0.00  0.00     0.098 A 
HETATM    3  C   UNK N   1      12.159  -5.343   1.958  0.00  0.00     0.041 A 
HETATM    4  C   UNK N   1      13.153  -4.700   1.225  0.00  0.00     0.048 A 
HETATM    5  C   UNK N   1      13.398  -3.343   1.414  0.00  0.00     0.156 A 
HETATM    6  F   UNK N   1      14.372  -2.728   0.696  0.00  0.00    -0.203 F 
HETATM    7  C   UNK N   1      12.651  -2.615   2.342  0.00  0.00     0.174 A 
HETATM    8  F   UNK N   1      12.928  -1.296   2.505  0.00  0.00    -0.202 F 
ENDROOT
BRANCH   2   9
HETATM    9  O   UNK N   1      10.406  -5.244   3.626  0.00  0.00    -0.254 OA
BRANCH   9  10
HETATM   10  C   UNK N   1       9.293  -5.889   3.117  0.00  0.00     0.530 C 
HETATM   11  F   UNK N   1       8.160  -5.527   3.824  0.00  0.00    -0.144 F 
HETATM   12  F   UNK N   1       9.132  -5.587   1.776  0.00  0.00    -0.144 F 
HETATM   13  F   UNK N   1       9.472  -7.254   3.245  0.00  0.00    -0.144 F 
ENDBRANCH   9  10
ENDBRANCH   2   9
BRANCH   1  14
HETATM   14  C   UNK N   1      10.866  -2.458   4.114  0.00  0.00     0.182 C 
HETATM   15  O   UNK N   1      11.445  -1.892   5.032  0.00  0.00    -0.646 OA
BRANCH  14  16
HETATM   16  O   UNK N   1       9.520  -2.385   4.043  0.00  0.00    -0.772 OA
HETATM   17  H   UNK N   1       9.019  -2.958   3.445  0.00  0.00     0.167 HD
ENDBRANCH  14  16
ENDBRANCH   1  14
TORSDOF 4
ENDMDL
MODEL 9
REMARK VINA RESULT:      -5.4      2.071      4.936
REMARK  4 active torsions:
REMARK  status: ('A' for Active; 'I' for Inactive)
REMARK    1  A    between atoms: C_2  and  O_3 
REMARK    2  A    between atoms: C_2  and  C_4 
REMARK    3  A    between atoms: C_5  and  O_6 
REMARK    4  A    between atoms: O_6  and  C_7 
ROOT
HETATM    1  C   UNK N   1      10.706  -3.757   4.372  0.00  0.00     0.113 A 
HETATM    2  C   UNK N   1      10.912  -2.537   3.672  0.00  0.00     0.098 A 
HETATM    3  C   UNK N   1      11.798  -2.515   2.571  0.00  0.00     0.041 A 
HETATM    4  C   UNK N   1      12.463  -3.672   2.172  0.00  0.00     0.048 A 
HETATM    5  C   UNK N   1      12.268  -4.866   2.859  0.00  0.00     0.156 A 
HETATM    6  F   UNK N   1      12.918  -5.987   2.459  0.00  0.00    -0.203 F 
HETATM    7  C   UNK N   1      11.401  -4.915   3.953  0.00  0.00     0.174 A 
HETATM    8  F   UNK N   1      11.230  -6.102   4.591  0.00  0.00    -0.202 F 
ENDROOT
BRANCH   2   9
HETATM    9  O   UNK N   1      10.261  -1.411   4.082  0.00  0.00    -0.254 OA
BRANCH   9  10
HETATM   10  C   UNK N   1       9.634  -0.479   3.274  0.00  0.00     0.530 C 
HETATM   11  F   UNK N   1      10.571   0.321   2.644  0.00  0.00    -0.144 F 
HETATM   12  F   UNK N   1       8.843  -1.113   2.333  0.00  0.00    -0.144 F 
HETATM   13  F   UNK N   1       8.830   0.324   4.060  0.00  0.00    -0.144 F 
ENDBRANCH   9  10
ENDBRANCH   2   9
BRANCH   1  14
HETATM   14  C   UNK N   1       9.764  -3.831   5.532  0.00  0.00     0.182 C 
HETATM   15  O   UNK N   1      10.149  -4.261   6.612  0.00  0.00    -0.646 OA
BRANCH  14  16
HETATM   16  O   UNK N   1       8.474  -3.457   5.398  0.00  0.00    -0.772 OA
HETATM   17  H   UNK N   1       8.182  -2.934   4.638  0.00  0.00     0.167 HD
ENDBRANCH  14  16
ENDBRANCH   1  14
TORSDOF 4
ENDMDL
