MODEL 1
REMARK VINA RESULT:      -7.6      0.000      0.000
REMARK  2 active torsions:
REMARK  status: ('A' for Active; 'I' for Inactive)
REMARK    1  A    between atoms: C_2  and  O_3 
REMARK    2  A    between atoms: C_2  and  C_4 
ROOT
HETATM    1  C   UNK N   1      10.429  -7.429   5.106  0.00  0.00     0.038 A 
HETATM    2  C   UNK N   1       9.979  -6.744   6.253  0.00  0.00     0.021 A 
HETATM    3  C   UNK N   1       9.931  -5.345   6.275  0.00  0.00     0.038 A 
HETATM    4  C   UNK N   1      10.326  -4.611   5.155  0.00  0.00     0.077 A 
HETATM    5  C   UNK N   1      10.785  -5.294   4.005  0.00  0.00     0.006 A 
HETATM    6  C   UNK N   1      10.843  -6.691   3.979  0.00  0.00     0.031 A 
HETATM    7  C   UNK N   1      11.147  -4.439   2.839  0.00  0.00     0.175 C 
HETATM    8  O   UNK N   1      11.948  -4.901   1.809  0.00  0.00    -0.337 OA
HETATM    9  C   UNK N   1      12.603  -3.843   1.299  0.00  0.00     0.118 A 
HETATM   10  C   UNK N   1      13.283  -3.785   0.084  0.00  0.00     0.150 A 
HETATM   11  F   UNK N   1      13.354  -4.869  -0.726  0.00  0.00    -0.203 F 
HETATM   12  C   UNK N   1      13.892  -2.571  -0.284  0.00  0.00     0.048 A 
HETATM   13  C   UNK N   1      13.815  -1.450   0.573  0.00  0.00     0.046 A 
HETATM   14  C   UNK N   1      13.141  -1.547   1.803  0.00  0.00     0.126 A 
HETATM   15  F   UNK N   1      13.090  -0.490   2.651  0.00  0.00    -0.205 F 
HETATM   16  C   UNK N   1      12.530  -2.757   2.131  0.00  0.00     0.026 A 
HETATM   17  C   UNK N   1      11.865  -3.193   3.379  0.00  0.00     0.083 C 
HETATM   18  C   UNK N   1      10.834  -2.402   4.191  0.00  0.00     0.188 C 
HETATM   19  O   UNK N   1      10.278  -3.235   5.176  0.00  0.00    -0.350 OA
ENDROOT
BRANCH   1  20
HETATM   20  C   UNK N   1      10.445  -8.914   5.083  0.00  0.00     0.176 C 
HETATM   21  O   UNK N   1      11.495  -9.516   4.910  0.00  0.00    -0.646 OA
BRANCH  20  22
HETATM   22  O   UNK N   1       9.295  -9.608   5.233  0.00  0.00    -0.773 OA
HETATM   23  H   UNK N   1       8.921 -10.123   4.504  0.00  0.00     0.167 HD
ENDBRANCH  20  22
ENDBRANCH   1  20
TORSDOF 2
ENDMDL
MODEL 2
REMARK VINA RESULT:      -7.4      2.102      2.416
REMARK  2 active torsions:
REMARK  status: ('A' for Active; 'I' for Inactive)
REMARK    1  A    between atoms: C_2  and  O_3 
REMARK    2  A    between atoms: C_2  and  C_4 
ROOT
HETATM    1  C   UNK N   1      11.096  -7.405   5.003  0.00  0.00     0.038 A 
HETATM    2  C   UNK N   1       9.691  -7.515   4.987  0.00  0.00     0.021 A 
HETATM    3  C   UNK N   1       8.937  -6.882   3.992  0.00  0.00     0.038 A 
HETATM    4  C   UNK N   1       9.571  -6.135   2.998  0.00  0.00     0.077 A 
HETATM    5  C   UNK N   1      10.980  -6.014   3.015  0.00  0.00     0.006 A 
HETATM    6  C   UNK N   1      11.739  -6.638   4.011  0.00  0.00     0.031 A 
HETATM    7  C   UNK N   1      11.582  -5.235   1.896  0.00  0.00     0.175 C 
HETATM    8  O   UNK N   1      12.863  -4.714   1.968  0.00  0.00    -0.337 OA
HETATM    9  C   UNK N   1      12.894  -3.609   1.203  0.00  0.00     0.118 A 
HETATM   10  C   UNK N   1      14.027  -2.934   0.751  0.00  0.00     0.150 A 
HETATM   11  F   UNK N   1      15.269  -3.362   1.083  0.00  0.00    -0.203 F 
HETATM   12  C   UNK N   1      13.849  -1.800  -0.062  0.00  0.00     0.048 A 
HETATM   13  C   UNK N   1      12.548  -1.362  -0.395  0.00  0.00     0.046 A 
HETATM   14  C   UNK N   1      11.424  -2.050   0.095  0.00  0.00     0.126 A 
HETATM   15  F   UNK N   1      10.170  -1.619  -0.187  0.00  0.00    -0.205 F 
HETATM   16  C   UNK N   1      11.632  -3.183   0.881  0.00  0.00     0.026 A 
HETATM   17  C   UNK N   1      10.671  -4.029   1.625  0.00  0.00     0.083 C 
HETATM   18  C   UNK N   1       9.343  -4.582   1.100  0.00  0.00     0.188 C 
HETATM   19  O   UNK N   1       8.830  -5.512   2.019  0.00  0.00    -0.350 OA
ENDROOT
BRANCH   1  20
HETATM   20  C   UNK N   1      11.888  -8.107   6.044  0.00  0.00     0.176 C 
HETATM   21  O   UNK N   1      11.721  -9.301   6.246  0.00  0.00    -0.646 OA
BRANCH  20  22
HETATM   22  O   UNK N   1      12.784  -7.424   6.790  0.00  0.00    -0.773 OA
HETATM   23  H   UNK N   1      13.605  -7.086   6.405  0.00  0.00     0.167 HD
ENDBRANCH  20  22
ENDBRANCH   1  20
TORSDOF 2
ENDMDL
MODEL 3
REMARK VINA RESULT:      -7.4      2.783      4.339
REMARK  2 active torsions:
REMARK  status: ('A' for Active; 'I' for Inactive)
REMARK    1  A    between atoms: C_2  and  O_3 
REMARK    2  A    between atoms: C_2  and  C_4 
ROOT
HETATM    1  C   UNK N   1       9.800 -11.130   5.883  0.00  0.00     0.038 A 
HETATM    2  C   UNK N   1      10.903 -11.165   6.758  0.00  0.00     0.021 A 
HETATM    3  C   UNK N   1      11.705 -10.032   6.941  0.00  0.00     0.038 A 
HETATM    4  C   UNK N   1      11.417  -8.850   6.257  0.00  0.00     0.077 A 
HETATM    5  C   UNK N   1      10.315  -8.812   5.371  0.00  0.00     0.006 A 
HETATM    6  C   UNK N   1       9.515  -9.943   5.179  0.00  0.00     0.031 A 
HETATM    7  C   UNK N   1      10.050  -7.501   4.713  0.00  0.00     0.175 C 
HETATM    8  O   UNK N   1       9.278  -7.396   3.569  0.00  0.00    -0.337 OA
HETATM    9  C   UNK N   1       9.719  -6.327   2.881  0.00  0.00     0.118 A 
HETATM   10  C   UNK N   1       9.066  -5.678   1.835  0.00  0.00     0.150 A 
HETATM   11  F   UNK N   1       7.861  -6.111   1.391  0.00  0.00    -0.203 F 
HETATM   12  C   UNK N   1       9.687  -4.557   1.253  0.00  0.00     0.048 A 
HETATM   13  C   UNK N   1      10.946  -4.120   1.721  0.00  0.00     0.046 A 
HETATM   14  C   UNK N   1      11.590  -4.811   2.764  0.00  0.00     0.126 A 
HETATM   15  F   UNK N   1      12.815  -4.424   3.198  0.00  0.00    -0.205 F 
HETATM   16  C   UNK N   1      10.940  -5.905   3.334  0.00  0.00     0.026 A 
HETATM   17  C   UNK N   1      11.406  -6.884   4.343  0.00  0.00     0.083 C 
HETATM   18  C   UNK N   1      12.127  -6.569   5.657  0.00  0.00     0.188 C 
HETATM   19  O   UNK N   1      12.205  -7.735   6.437  0.00  0.00    -0.350 OA
ENDROOT
BRANCH   1  20
HETATM   20  C   UNK N   1       8.938 -12.328   5.722  0.00  0.00     0.176 C 
HETATM   21  O   UNK N   1       8.159 -12.651   6.607  0.00  0.00    -0.646 OA
BRANCH  20  22
HETATM   22  O   UNK N   1       9.024 -13.081   4.602  0.00  0.00    -0.773 OA
HETATM   23  H   UNK N   1       9.723 -13.741   4.494  0.00  0.00     0.167 HD
ENDBRANCH  20  22
ENDBRANCH   1  20
TORSDOF 2
ENDMDL
MODEL 4
REMARK VINA RESULT:      -7.4      2.138      3.367
REMARK  2 active torsions:
REMARK  status: ('A' for Active; 'I' for Inactive)
REMARK    1  A    between atoms: C_2  and  O_3 
REMARK    2  A    between atoms: C_2  and  C_4 
ROOT
HETATM    1  C   UNK N   1      11.913 -10.316   6.001  0.00  0.00     0.038 A 
HETATM    2  C   UNK N   1      11.176 -10.209   7.197  0.00  0.00     0.021 A 
HETATM    3  C   UNK N   1      10.413  -9.066   7.465  0.00  0.00     0.038 A 
HETATM    4  C   UNK N   1      10.372  -8.017   6.545  0.00  0.00     0.077 A 
HETATM    5  C   UNK N   1      11.116  -8.116   5.347  0.00  0.00     0.006 A 
HETATM    6  C   UNK N   1      11.886  -9.253   5.076  0.00  0.00     0.031 A 
HETATM    7  C   UNK N   1      10.985  -6.973   4.399  0.00  0.00     0.175 C 
HETATM    8  O   UNK N   1      11.909  -6.741   3.395  0.00  0.00    -0.337 OA
HETATM    9  C   UNK N   1      11.923  -5.417   3.157  0.00  0.00     0.118 A 
HETATM   10  C   UNK N   1      12.475  -4.771   2.053  0.00  0.00     0.150 A 
HETATM   11  F   UNK N   1      13.094  -5.474   1.073  0.00  0.00    -0.203 F 
HETATM   12  C   UNK N   1      12.370  -3.370   1.976  0.00  0.00     0.048 A 
HETATM   13  C   UNK N   1      11.727  -2.649   3.008  0.00  0.00     0.046 A 
HETATM   14  C   UNK N   1      11.200  -3.328   4.121  0.00  0.00     0.126 A 
HETATM   15  F   UNK N   1      10.613  -2.646   5.135  0.00  0.00    -0.205 F 
HETATM   16  C   UNK N   1      11.301  -4.719   4.158  0.00  0.00     0.026 A 
HETATM   17  C   UNK N   1      10.957  -5.681   5.229  0.00  0.00     0.083 C 
HETATM   18  C   UNK N   1       9.667  -5.709   6.054  0.00  0.00     0.188 C 
HETATM   19  O   UNK N   1       9.621  -6.893   6.808  0.00  0.00    -0.350 OA
ENDROOT
BRANCH   1  20
HETATM   20  C   UNK N   1      12.693 -11.546   5.713  0.00  0.00     0.176 C 
HETATM   21  O   UNK N   1      12.929 -11.870   4.558  0.00  0.00    -0.646 OA
BRANCH  20  22
HETATM   22  O   UNK N   1      13.128 -12.327   6.726  0.00  0.00    -0.773 OA
HETATM   23  H   UNK N   1      14.052 -12.306   7.015  0.00  0.00     0.167 HD
ENDBRANCH  20  22
ENDBRANCH   1  20
TORSDOF 2
ENDMDL
MODEL 5
REMARK VINA RESULT:      -7.4      2.191      4.100
REMARK  2 active torsions:
REMARK  status: ('A' for Active; 'I' for Inactive)
REMARK    1  A    between atoms: C_2  and  O_3 
REMARK    2  A    between atoms: C_2  and  C_4 
ROOT
HETATM    1  C   UNK N   1      10.515  -4.513   4.657  0.00  0.00     0.038 A 
HETATM    2  C   UNK N   1      10.846  -5.788   4.155  0.00  0.00     0.021 A 
HETATM    3  C   UNK N   1      11.798  -5.929   3.139  0.00  0.00     0.038 A 
HETATM    4  C   UNK N   1      12.434  -4.804   2.611  0.00  0.00     0.077 A 
HETATM    5  C   UNK N   1      12.099  -3.522   3.106  0.00  0.00     0.006 A 
HETATM    6  C   UNK N   1      11.143  -3.374   4.116  0.00  0.00     0.031 A 
HETATM    7  C   UNK N   1      12.853  -2.377   2.520  0.00  0.00     0.175 C 
HETATM    8  O   UNK N   1      12.396  -1.074   2.608  0.00  0.00    -0.337 OA
HETATM    9  C   UNK N   1      12.856  -0.410   1.533  0.00  0.00     0.118 A 
HETATM   10  C   UNK N   1      12.892   0.971   1.353  0.00  0.00     0.150 A 
HETATM   11  F   UNK N   1      12.420   1.809   2.308  0.00  0.00    -0.203 F 
HETATM   12  C   UNK N   1      13.433   1.476   0.157  0.00  0.00     0.048 A 
HETATM   13  C   UNK N   1      13.915   0.591  -0.833  0.00  0.00     0.046 A 
HETATM   14  C   UNK N   1      13.845  -0.799  -0.632  0.00  0.00     0.126 A 
HETATM   15  F   UNK N   1      14.271  -1.660  -1.589  0.00  0.00    -0.205 F 
HETATM   16  C   UNK N   1      13.322  -1.269   0.573  0.00  0.00     0.026 A 
HETATM   17  C   UNK N   1      13.014  -2.647   1.016  0.00  0.00     0.083 C 
HETATM   18  C   UNK N   1      13.918  -3.876   0.878  0.00  0.00     0.188 C 
HETATM   19  O   UNK N   1      13.371  -4.942   1.612  0.00  0.00    -0.350 OA
ENDROOT
BRANCH   1  20
HETATM   20  C   UNK N   1       9.527  -4.379   5.758  0.00  0.00     0.176 C 
HETATM   21  O   UNK N   1       8.621  -3.562   5.678  0.00  0.00    -0.646 OA
BRANCH  20  22
HETATM   22  O   UNK N   1       9.637  -5.146   6.865  0.00  0.00    -0.773 OA
HETATM   23  H   UNK N   1       9.890  -4.764   7.717  0.00  0.00     0.167 HD
ENDBRANCH  20  22
ENDBRANCH   1  20
TORSDOF 2
ENDMDL
MODEL 6
REMARK VINA RESULT:      -7.3      2.438      4.303
REMARK  2 active torsions:
REMARK  status: ('A' for Active; 'I' for Inactive)
REMARK    1  A    between atoms: C_2  and  O_3 
REMARK    2  A    between atoms: C_2  and  C_4 
ROOT
HETATM    1  C   UNK N   1      10.588  -5.405   4.576  0.00  0.00     0.038 A 
HETATM    2  C   UNK N   1      11.143  -6.158   3.521  0.00  0.00     0.021 A 
HETATM    3  C   UNK N   1      11.976  -5.552   2.573  0.00  0.00     0.038 A 
HETATM    4  C   UNK N   1      12.269  -4.190   2.664  0.00  0.00     0.077 A 
HETATM    5  C   UNK N   1      11.708  -3.428   3.715  0.00  0.00     0.006 A 
HETATM    6  C   UNK N   1      10.869  -4.027   4.661  0.00  0.00     0.031 A 
HETATM    7  C   UNK N   1      12.104  -1.992   3.765  0.00  0.00     0.175 C 
HETATM    8  O   UNK N   1      11.374  -1.052   4.471  0.00  0.00    -0.337 OA
HETATM    9  C   UNK N   1      11.539   0.133   3.857  0.00  0.00     0.118 A 
HETATM   10  C   UNK N   1      11.234   1.392   4.371  0.00  0.00     0.150 A 
HETATM   11  F   UNK N   1      10.697   1.527   5.609  0.00  0.00    -0.203 F 
HETATM   12  C   UNK N   1      11.500   2.521   3.575  0.00  0.00     0.048 A 
HETATM   13  C   UNK N   1      12.054   2.365   2.285  0.00  0.00     0.046 A 
HETATM   14  C   UNK N   1      12.330   1.080   1.785  0.00  0.00     0.126 A 
HETATM   15  F   UNK N   1      12.827   0.915   0.535  0.00  0.00    -0.205 F 
HETATM   16  C   UNK N   1      12.074  -0.019   2.606  0.00  0.00     0.026 A 
HETATM   17  C   UNK N   1      12.146  -1.470   2.322  0.00  0.00     0.083 C 
HETATM   18  C   UNK N   1      13.285  -2.208   1.613  0.00  0.00     0.188 C 
HETATM   19  O   UNK N   1      13.088  -3.594   1.732  0.00  0.00    -0.350 OA
ENDROOT
BRANCH   1  20
HETATM   20  C   UNK N   1       9.733  -6.064   5.593  0.00  0.00     0.176 C 
HETATM   21  O   UNK N   1       9.627  -5.587   6.714  0.00  0.00    -0.646 OA
BRANCH  20  22
HETATM   22  O   UNK N   1       9.081  -7.210   5.293  0.00  0.00    -0.773 OA
HETATM   23  H   UNK N   1       9.563  -8.032   5.123  0.00  0.00     0.167 HD
ENDBRANCH  20  22
ENDBRANCH   1  20
TORSDOF 2
ENDMDL
MODEL 7
REMARK VINA RESULT:      -7.3      3.136      5.161
REMARK  2 active torsions:
REMARK  status: ('A' for Active; 'I' for Inactive)
REMARK    1  A    between atoms: C_2  and  O_3 
REMARK    2  A    between atoms: C_2  and  C_4 
ROOT
HETATM    1  C   UNK N   1      12.447 -11.529   5.711  0.00  0.00     0.038 A 
HETATM    2  C   UNK N   1      12.228 -11.747   7.086  0.00  0.00     0.021 A 
HETATM    3  C   UNK N   1      11.478 -10.839   7.842  0.00  0.00     0.038 A 
HETATM    4  C   UNK N   1      10.933  -9.705   7.239  0.00  0.00     0.077 A 
HETATM    5  C   UNK N   1      11.156  -9.477   5.861  0.00  0.00     0.006 A 
HETATM    6  C   UNK N   1      11.912 -10.377   5.101  0.00  0.00     0.031 A 
HETATM    7  C   UNK N   1      10.505  -8.266   5.284  0.00  0.00     0.175 C 
HETATM    8  O   UNK N   1      10.920  -7.707   4.089  0.00  0.00    -0.337 OA
HETATM    9  C   UNK N   1      10.654  -6.390   4.144  0.00  0.00     0.118 A 
HETATM   10  C   UNK N   1      10.633  -5.494   3.076  0.00  0.00     0.150 A 
HETATM   11  F   UNK N   1      10.913  -5.908   1.816  0.00  0.00    -0.203 F 
HETATM   12  C   UNK N   1      10.310  -4.150   3.337  0.00  0.00     0.048 A 
HETATM   13  C   UNK N   1      10.027  -3.732   4.656  0.00  0.00     0.046 A 
HETATM   14  C   UNK N   1      10.078  -4.655   5.716  0.00  0.00     0.126 A 
HETATM   15  F   UNK N   1       9.844  -4.259   6.992  0.00  0.00    -0.205 F 
HETATM   16  C   UNK N   1      10.381  -5.984   5.423  0.00  0.00     0.026 A 
HETATM   17  C   UNK N   1      10.622  -7.137   6.319  0.00  0.00     0.083 C 
HETATM   18  C   UNK N   1       9.775  -7.550   7.527  0.00  0.00     0.188 C 
HETATM   19  O   UNK N   1      10.195  -8.811   7.982  0.00  0.00    -0.350 OA
ENDROOT
BRANCH   1  20
HETATM   20  C   UNK N   1      13.217 -12.515   4.912  0.00  0.00     0.176 C 
HETATM   21  O   UNK N   1      12.648 -13.234   4.103  0.00  0.00    -0.646 OA
BRANCH  20  22
HETATM   22  O   UNK N   1      14.551 -12.639   5.090  0.00  0.00    -0.773 OA
HETATM   23  H   UNK N   1      14.979 -13.507   5.092  0.00  0.00     0.167 HD
ENDBRANCH  20  22
ENDBRANCH   1  20
TORSDOF 2
ENDMDL
MODEL 8
REMARK VINA RESULT:      -7.0      3.389      7.212
REMARK  2 active torsions:
REMARK  status: ('A' for Active; 'I' for Inactive)
REMARK    1  A    between atoms: C_2  and  O_3 
REMARK    2  A    between atoms: C_2  and  C_4 
ROOT
HETATM    1  C   UNK N   1      10.282   1.560   3.312  0.00  0.00     0.038 A 
HETATM    2  C   UNK N   1      10.919   1.815   2.081  0.00  0.00     0.021 A 
HETATM    3  C   UNK N   1      11.331   0.759   1.259  0.00  0.00     0.038 A 
HETATM    4  C   UNK N   1      11.111  -0.563   1.651  0.00  0.00     0.077 A 
HETATM    5  C   UNK N   1      10.480  -0.823   2.889  0.00  0.00     0.006 A 
HETATM    6  C   UNK N   1      10.072   0.227   3.718  0.00  0.00     0.031 A 
HETATM    7  C   UNK N   1      10.245  -2.259   3.214  0.00  0.00     0.175 C 
HETATM    8  O   UNK N   1       9.998  -2.690   4.505  0.00  0.00    -0.337 OA
HETATM    9  C   UNK N   1      10.453  -3.952   4.605  0.00  0.00     0.118 A 
HETATM   10  C   UNK N   1      10.163  -4.870   5.613  0.00  0.00     0.150 A 
HETATM   11  F   UNK N   1       9.355  -4.534   6.648  0.00  0.00    -0.203 F 
HETATM   12  C   UNK N   1      10.725  -6.156   5.527  0.00  0.00     0.048 A 
HETATM   13  C   UNK N   1      11.570  -6.491   4.445  0.00  0.00     0.046 A 
HETATM   14  C   UNK N   1      11.863  -5.535   3.456  0.00  0.00     0.126 A 
HETATM   15  F   UNK N   1      12.701  -5.832   2.432  0.00  0.00    -0.205 F 
HETATM   16  C   UNK N   1      11.273  -4.275   3.557  0.00  0.00     0.026 A 
HETATM   17  C   UNK N   1      11.479  -3.048   2.754  0.00  0.00     0.083 C 
HETATM   18  C   UNK N   1      11.526  -2.953   1.226  0.00  0.00     0.188 C 
HETATM   19  O   UNK N   1      11.516  -1.601   0.843  0.00  0.00    -0.350 OA
ENDROOT
BRANCH   1  20
HETATM   20  C   UNK N   1       9.820   2.688   4.160  0.00  0.00     0.176 C 
HETATM   21  O   UNK N   1      10.249   2.821   5.298  0.00  0.00    -0.646 OA
BRANCH  20  22
HETATM   22  O   UNK N   1       8.907   3.564   3.686  0.00  0.00    -0.773 OA
HETATM   23  H   UNK N   1       9.066   4.518   3.712  0.00  0.00     0.167 HD
ENDBRANCH  20  22
ENDBRANCH   1  20
TORSDOF 2
ENDMDL
MODEL 9
REMARK VINA RESULT:      -6.9      2.931      3.585
REMARK  2 active torsions:
REMARK  status: ('A' for Active; 'I' for Inactive)
REMARK    1  A    between atoms: C_2  and  O_3 
REMARK    2  A    between atoms: C_2  and  C_4 
ROOT
HETATM    1  C   UNK N   1      10.526 -10.100   5.067  0.00  0.00     0.038 A 
HETATM    2  C   UNK N   1      10.808  -9.853   6.426  0.00  0.00     0.021 A 
HETATM    3  C   UNK N   1      10.599  -8.584   6.979  0.00  0.00     0.038 A 
HETATM    4  C   UNK N   1      10.104  -7.546   6.188  0.00  0.00     0.077 A 
HETATM    5  C   UNK N   1       9.828  -7.786   4.822  0.00  0.00     0.006 A 
HETATM    6  C   UNK N   1      10.041  -9.050   4.261  0.00  0.00     0.031 A 
HETATM    7  C   UNK N   1       9.262  -6.638   4.058  0.00  0.00     0.175 C 
HETATM    8  O   UNK N   1       9.295  -6.588   2.675  0.00  0.00    -0.337 OA
HETATM    9  C   UNK N   1       9.337  -5.292   2.318  0.00  0.00     0.118 A 
HETATM   10  C   UNK N   1       9.092  -4.764   1.052  0.00  0.00     0.150 A 
HETATM   11  F   UNK N   1       8.783  -5.572   0.009  0.00  0.00    -0.203 F 
HETATM   12  C   UNK N   1       9.168  -3.369   0.884  0.00  0.00     0.048 A 
HETATM   13  C   UNK N   1       9.497  -2.539   1.978  0.00  0.00     0.046 A 
HETATM   14  C   UNK N   1       9.761  -3.104   3.238  0.00  0.00     0.126 A 
HETATM   15  F   UNK N   1      10.114  -2.322   4.289  0.00  0.00    -0.205 F 
HETATM   16  C   UNK N   1       9.658  -4.488   3.379  0.00  0.00     0.026 A 
HETATM   17  C   UNK N   1       9.986  -5.367   4.524  0.00  0.00     0.083 C 
HETATM   18  C   UNK N   1       9.598  -5.144   5.989  0.00  0.00     0.188 C 
HETATM   19  O   UNK N   1       9.898  -6.298   6.731  0.00  0.00    -0.350 OA
ENDROOT
BRANCH   1  20
HETATM   20  C   UNK N   1      10.722 -11.457   4.499  0.00  0.00     0.176 C 
HETATM   21  O   UNK N   1       9.829 -12.290   4.570  0.00  0.00    -0.646 OA
BRANCH  20  22
HETATM   22  O   UNK N   1      11.896 -11.788   3.918  0.00  0.00    -0.773 OA
HETATM   23  H   UNK N   1      12.442 -11.122   3.476  0.00  0.00     0.167 HD
ENDBRANCH  20  22
ENDBRANCH   1  20
TORSDOF 2
ENDMDL
