MODEL 1
REMARK VINA RESULT:      -6.9      0.000      0.000
REMARK  2 active torsions:
REMARK  status: ('A' for Active; 'I' for Inactive)
REMARK    1  A    between atoms: C_2  and  O_3 
REMARK    2  A    between atoms: C_2  and  C_4 
ROOT
HETATM    1  C   UNK N   1      10.373  -4.667   5.002  0.00  0.00     0.087 A 
HETATM    2  C   UNK N   1      10.352  -6.085   5.020  0.00  0.00     0.134 A 
HETATM    3  F   UNK N   1       9.614  -6.763   5.935  0.00  0.00    -0.205 F 
HETATM    4  C   UNK N   1      11.107  -6.827   4.116  0.00  0.00     0.044 A 
HETATM    5  C   UNK N   1      11.893  -6.197   3.165  0.00  0.00     0.018 A 
HETATM    6  C   UNK N   1      11.938  -4.799   3.092  0.00  0.00     0.014 A 
HETATM    7  C   UNK N   1      12.726  -4.181   2.101  0.00  0.00     0.130 A 
HETATM    8  F   UNK N   1      13.450  -4.925   1.225  0.00  0.00    -0.205 F 
HETATM    9  C   UNK N   1      12.764  -2.793   1.999  0.00  0.00     0.085 A 
HETATM   10  C   UNK N   1      12.025  -2.007   2.874  0.00  0.00     0.120 A 
HETATM   11  F   UNK N   1      12.059  -0.657   2.757  0.00  0.00    -0.206 F 
HETATM   12  C   UNK N   1      11.241  -2.597   3.867  0.00  0.00     0.056 A 
HETATM   13  C   UNK N   1      11.179  -4.009   4.008  0.00  0.00     0.000 A 
ENDROOT
BRANCH   1  14
HETATM   14  C   UNK N   1       9.540  -3.944   6.028  0.00  0.00     0.180 C 
HETATM   15  O   UNK N   1       8.402  -3.579   5.784  0.00  0.00    -0.646 OA
BRANCH  14  16
HETATM   16  O   UNK N   1      10.056  -3.669   7.245  0.00  0.00    -0.773 OA
HETATM   17  H   UNK N   1      10.946  -3.962   7.490  0.00  0.00     0.167 HD
ENDBRANCH  14  16
ENDBRANCH   1  14
TORSDOF 2
ENDMDL
MODEL 2
REMARK VINA RESULT:      -6.1      1.892      2.519
REMARK  2 active torsions:
REMARK  status: ('A' for Active; 'I' for Inactive)
REMARK    1  A    between atoms: C_2  and  O_3 
REMARK    2  A    between atoms: C_2  and  C_4 
ROOT
HETATM    1  C   UNK N   1      11.573  -3.220   3.478  0.00  0.00     0.087 A 
HETATM    2  C   UNK N   1      11.370  -4.574   3.849  0.00  0.00     0.134 A 
HETATM    3  F   UNK N   1      10.624  -4.899   4.934  0.00  0.00    -0.205 F 
HETATM    4  C   UNK N   1      11.951  -5.612   3.125  0.00  0.00     0.044 A 
HETATM    5  C   UNK N   1      12.736  -5.348   2.014  0.00  0.00     0.018 A 
HETATM    6  C   UNK N   1      12.955  -4.030   1.595  0.00  0.00     0.014 A 
HETATM    7  C   UNK N   1      13.738  -3.787   0.449  0.00  0.00     0.130 A 
HETATM    8  F   UNK N   1      14.290  -4.816  -0.246  0.00  0.00    -0.205 F 
HETATM    9  C   UNK N   1      13.947  -2.485   0.004  0.00  0.00     0.085 A 
HETATM   10  C   UNK N   1      13.385  -1.414   0.688  0.00  0.00     0.120 A 
HETATM   11  F   UNK N   1      13.584  -0.150   0.238  0.00  0.00    -0.206 F 
HETATM   12  C   UNK N   1      12.612  -1.629   1.829  0.00  0.00     0.056 A 
HETATM   13  C   UNK N   1      12.379  -2.942   2.319  0.00  0.00     0.000 A 
ENDROOT
BRANCH   1  14
HETATM   14  C   UNK N   1      10.923  -2.160   4.329  0.00  0.00     0.180 C 
HETATM   15  O   UNK N   1      11.558  -1.527   5.156  0.00  0.00    -0.646 OA
BRANCH  14  16
HETATM   16  O   UNK N   1       9.604  -1.904   4.199  0.00  0.00    -0.773 OA
HETATM   17  H   UNK N   1       9.289  -1.131   3.708  0.00  0.00     0.167 HD
ENDBRANCH  14  16
ENDBRANCH   1  14
TORSDOF 2
ENDMDL
MODEL 3
REMARK VINA RESULT:      -6.1      2.294      2.532
REMARK  2 active torsions:
REMARK  status: ('A' for Active; 'I' for Inactive)
REMARK    1  A    between atoms: C_2  and  O_3 
REMARK    2  A    between atoms: C_2  and  C_4 
ROOT
HETATM    1  C   UNK N   1      10.044  -4.458   3.566  0.00  0.00     0.087 A 
HETATM    2  C   UNK N   1      10.934  -5.271   4.316  0.00  0.00     0.134 A 
HETATM    3  F   UNK N   1      10.674  -5.583   5.610  0.00  0.00    -0.205 F 
HETATM    4  C   UNK N   1      12.113  -5.752   3.754  0.00  0.00     0.044 A 
HETATM    5  C   UNK N   1      12.444  -5.458   2.442  0.00  0.00     0.018 A 
HETATM    6  C   UNK N   1      11.594  -4.675   1.652  0.00  0.00     0.014 A 
HETATM    7  C   UNK N   1      11.940  -4.408   0.313  0.00  0.00     0.130 A 
HETATM    8  F   UNK N   1      13.093  -4.894  -0.216  0.00  0.00    -0.205 F 
HETATM    9  C   UNK N   1      11.096  -3.650  -0.494  0.00  0.00     0.085 A 
HETATM   10  C   UNK N   1       9.904  -3.151   0.017  0.00  0.00     0.120 A 
HETATM   11  F   UNK N   1       9.083  -2.425  -0.781  0.00  0.00    -0.206 F 
HETATM   12  C   UNK N   1       9.543  -3.396   1.342  0.00  0.00     0.056 A 
HETATM   13  C   UNK N   1      10.379  -4.160   2.199  0.00  0.00     0.000 A 
ENDROOT
BRANCH   1  14
HETATM   14  C   UNK N   1       8.800  -3.965   4.258  0.00  0.00     0.180 C 
HETATM   15  O   UNK N   1       8.853  -3.129   5.145  0.00  0.00    -0.646 OA
BRANCH  14  16
HETATM   16  O   UNK N   1       7.593  -4.462   3.915  0.00  0.00    -0.773 OA
HETATM   17  H   UNK N   1       7.438  -5.417   3.873  0.00  0.00     0.167 HD
ENDBRANCH  14  16
ENDBRANCH   1  14
TORSDOF 2
ENDMDL
MODEL 4
REMARK VINA RESULT:      -6.1      2.233      4.593
REMARK  2 active torsions:
REMARK  status: ('A' for Active; 'I' for Inactive)
REMARK    1  A    between atoms: C_2  and  O_3 
REMARK    2  A    between atoms: C_2  and  C_4 
ROOT
HETATM    1  C   UNK N   1      12.279  -1.337   3.081  0.00  0.00     0.087 A 
HETATM    2  C   UNK N   1      12.862  -0.383   2.209  0.00  0.00     0.134 A 
HETATM    3  F   UNK N   1      12.785   0.946   2.473  0.00  0.00    -0.205 F 
HETATM    4  C   UNK N   1      13.510  -0.777   1.042  0.00  0.00     0.044 A 
HETATM    5  C   UNK N   1      13.610  -2.117   0.706  0.00  0.00     0.018 A 
HETATM    6  C   UNK N   1      13.067  -3.102   1.540  0.00  0.00     0.014 A 
HETATM    7  C   UNK N   1      13.203  -4.460   1.190  0.00  0.00     0.130 A 
HETATM    8  F   UNK N   1      13.844  -4.823   0.049  0.00  0.00    -0.205 F 
HETATM    9  C   UNK N   1      12.689  -5.454   2.018  0.00  0.00     0.085 A 
HETATM   10  C   UNK N   1      12.038  -5.113   3.198  0.00  0.00     0.120 A 
HETATM   11  F   UNK N   1      11.554  -6.089   4.005  0.00  0.00    -0.206 F 
HETATM   12  C   UNK N   1      11.886  -3.775   3.562  0.00  0.00     0.056 A 
HETATM   13  C   UNK N   1      12.391  -2.731   2.742  0.00  0.00     0.000 A 
ENDROOT
BRANCH   1  14
HETATM   14  C   UNK N   1      11.581  -0.821   4.313  0.00  0.00     0.180 C 
HETATM   15  O   UNK N   1      10.451  -0.364   4.261  0.00  0.00    -0.646 OA
BRANCH  14  16
HETATM   16  O   UNK N   1      12.213  -0.839   5.505  0.00  0.00    -0.773 OA
HETATM   17  H   UNK N   1      13.134  -0.551   5.589  0.00  0.00     0.167 HD
ENDBRANCH  14  16
ENDBRANCH   1  14
TORSDOF 2
ENDMDL
MODEL 5
REMARK VINA RESULT:      -6.0      2.904      3.583
REMARK  2 active torsions:
REMARK  status: ('A' for Active; 'I' for Inactive)
REMARK    1  A    between atoms: C_2  and  O_3 
REMARK    2  A    between atoms: C_2  and  C_4 
ROOT
HETATM    1  C   UNK N   1      10.458  -5.606   2.627  0.00  0.00     0.087 A 
HETATM    2  C   UNK N   1       9.062  -5.735   2.406  0.00  0.00     0.134 A 
HETATM    3  F   UNK N   1       8.232  -6.147   3.397  0.00  0.00    -0.205 F 
HETATM    4  C   UNK N   1       8.504  -5.466   1.159  0.00  0.00     0.044 A 
HETATM    5  C   UNK N   1       9.299  -5.056   0.102  0.00  0.00     0.018 A 
HETATM    6  C   UNK N   1      10.680  -4.896   0.269  0.00  0.00     0.014 A 
HETATM    7  C   UNK N   1      11.464  -4.455  -0.815  0.00  0.00     0.130 A 
HETATM    8  F   UNK N   1      10.898  -4.193  -2.021  0.00  0.00    -0.205 F 
HETATM    9  C   UNK N   1      12.835  -4.269  -0.660  0.00  0.00     0.085 A 
HETATM   10  C   UNK N   1      13.440  -4.517   0.566  0.00  0.00     0.120 A 
HETATM   11  F   UNK N   1      14.774  -4.320   0.709  0.00  0.00    -0.206 F 
HETATM   12  C   UNK N   1      12.685  -4.961   1.652  0.00  0.00     0.056 A 
HETATM   13  C   UNK N   1      11.285  -5.169   1.534  0.00  0.00     0.000 A 
ENDROOT
BRANCH   1  14
HETATM   14  C   UNK N   1      10.979  -5.935   4.002  0.00  0.00     0.180 C 
HETATM   15  O   UNK N   1      11.507  -7.008   4.244  0.00  0.00    -0.646 OA
BRANCH  14  16
HETATM   16  O   UNK N   1      10.851  -5.041   5.005  0.00  0.00    -0.773 OA
HETATM   17  H   UNK N   1      11.329  -4.199   4.990  0.00  0.00     0.167 HD
ENDBRANCH  14  16
ENDBRANCH   1  14
TORSDOF 2
ENDMDL
MODEL 6
REMARK VINA RESULT:      -6.0      2.348      4.353
REMARK  2 active torsions:
REMARK  status: ('A' for Active; 'I' for Inactive)
REMARK    1  A    between atoms: C_2  and  O_3 
REMARK    2  A    between atoms: C_2  and  C_4 
ROOT
HETATM    1  C   UNK N   1      12.026  -2.781   2.657  0.00  0.00     0.087 A 
HETATM    2  C   UNK N   1      12.925  -3.279   1.679  0.00  0.00     0.134 A 
HETATM    3  F   UNK N   1      13.558  -2.443   0.819  0.00  0.00    -0.205 F 
HETATM    4  C   UNK N   1      13.166  -4.645   1.555  0.00  0.00     0.044 A 
HETATM    5  C   UNK N   1      12.541  -5.554   2.392  0.00  0.00     0.018 A 
HETATM    6  C   UNK N   1      11.658  -5.115   3.386  0.00  0.00     0.014 A 
HETATM    7  C   UNK N   1      11.052  -6.056   4.241  0.00  0.00     0.130 A 
HETATM    8  F   UNK N   1      11.307  -7.383   4.105  0.00  0.00    -0.205 F 
HETATM    9  C   UNK N   1      10.189  -5.636   5.249  0.00  0.00     0.085 A 
HETATM   10  C   UNK N   1       9.919  -4.284   5.419  0.00  0.00     0.120 A 
HETATM   11  F   UNK N   1       9.087  -3.884   6.413  0.00  0.00    -0.206 F 
HETATM   12  C   UNK N   1      10.502  -3.334   4.581  0.00  0.00     0.056 A 
HETATM   13  C   UNK N   1      11.383  -3.721   3.537  0.00  0.00     0.000 A 
ENDROOT
BRANCH   1  14
HETATM   14  C   UNK N   1      11.809  -1.291   2.710  0.00  0.00     0.180 C 
HETATM   15  O   UNK N   1      10.877  -0.761   2.128  0.00  0.00    -0.646 OA
BRANCH  14  16
HETATM   16  O   UNK N   1      12.668  -0.507   3.396  0.00  0.00    -0.773 OA
HETATM   17  H   UNK N   1      13.282   0.085   2.937  0.00  0.00     0.167 HD
ENDBRANCH  14  16
ENDBRANCH   1  14
TORSDOF 2
ENDMDL
MODEL 7
REMARK VINA RESULT:      -5.9      5.868      8.061
REMARK  2 active torsions:
REMARK  status: ('A' for Active; 'I' for Inactive)
REMARK    1  A    between atoms: C_2  and  O_3 
REMARK    2  A    between atoms: C_2  and  C_4 
ROOT
HETATM    1  C   UNK N   1      11.355  -9.793   7.343  0.00  0.00     0.087 A 
HETATM    2  C   UNK N   1      10.692  -8.962   6.404  0.00  0.00     0.134 A 
HETATM    3  F   UNK N   1      10.119  -7.793   6.785  0.00  0.00    -0.205 F 
HETATM    4  C   UNK N   1      10.588  -9.331   5.066  0.00  0.00     0.044 A 
HETATM    5  C   UNK N   1      11.139 -10.519   4.614  0.00  0.00     0.018 A 
HETATM    6  C   UNK N   1      11.818 -11.368   5.495  0.00  0.00     0.014 A 
HETATM    7  C   UNK N   1      12.391 -12.560   5.008  0.00  0.00     0.130 A 
HETATM    8  F   UNK N   1      12.282 -12.897   3.697  0.00  0.00    -0.205 F 
HETATM    9  C   UNK N   1      13.090 -13.406   5.865  0.00  0.00     0.085 A 
HETATM   10  C   UNK N   1      13.227 -13.080   7.209  0.00  0.00     0.120 A 
HETATM   11  F   UNK N   1      13.921 -13.904   8.033  0.00  0.00    -0.206 F 
HETATM   12  C   UNK N   1      12.663 -11.909   7.716  0.00  0.00     0.056 A 
HETATM   13  C   UNK N   1      11.939 -11.022   6.876  0.00  0.00     0.000 A 
ENDROOT
BRANCH   1  14
HETATM   14  C   UNK N   1      11.405  -9.325   8.775  0.00  0.00     0.180 C 
HETATM   15  O   UNK N   1      10.405  -9.302   9.473  0.00  0.00    -0.646 OA
BRANCH  14  16
HETATM   16  O   UNK N   1      12.570  -8.900   9.307  0.00  0.00    -0.773 OA
HETATM   17  H   UNK N   1      13.420  -9.241   8.990  0.00  0.00     0.167 HD
ENDBRANCH  14  16
ENDBRANCH   1  14
TORSDOF 2
ENDMDL
MODEL 8
REMARK VINA RESULT:      -5.9      6.604      8.952
REMARK  2 active torsions:
REMARK  status: ('A' for Active; 'I' for Inactive)
REMARK    1  A    between atoms: C_2  and  O_3 
REMARK    2  A    between atoms: C_2  and  C_4 
ROOT
HETATM    1  C   UNK N   1      11.739 -10.737   6.867  0.00  0.00     0.087 A 
HETATM    2  C   UNK N   1      11.460 -10.374   5.525  0.00  0.00     0.134 A 
HETATM    3  F   UNK N   1      10.623  -9.345   5.237  0.00  0.00    -0.205 F 
HETATM    4  C   UNK N   1      12.015 -11.078   4.460  0.00  0.00     0.044 A 
HETATM    5  C   UNK N   1      12.865 -12.148   4.685  0.00  0.00     0.018 A 
HETATM    6  C   UNK N   1      13.188 -12.538   5.990  0.00  0.00     0.014 A 
HETATM    7  C   UNK N   1      14.074 -13.614   6.194  0.00  0.00     0.130 A 
HETATM    8  F   UNK N   1      14.609 -14.283   5.139  0.00  0.00    -0.205 F 
HETATM    9  C   UNK N   1      14.424 -14.001   7.484  0.00  0.00     0.085 A 
HETATM   10  C   UNK N   1      13.902 -13.328   8.582  0.00  0.00     0.120 A 
HETATM   11  F   UNK N   1      14.260 -13.704   9.834  0.00  0.00    -0.206 F 
HETATM   12  C   UNK N   1      13.018 -12.263   8.405  0.00  0.00     0.056 A 
HETATM   13  C   UNK N   1      12.631 -11.841   7.105  0.00  0.00     0.000 A 
ENDROOT
BRANCH   1  14
HETATM   14  C   UNK N   1      11.080  -9.933   7.958  0.00  0.00     0.180 C 
HETATM   15  O   UNK N   1      11.729  -9.214   8.701  0.00  0.00    -0.646 OA
BRANCH  14  16
HETATM   16  O   UNK N   1       9.746 -10.013   8.145  0.00  0.00    -0.773 OA
HETATM   17  H   UNK N   1       9.207  -9.216   8.257  0.00  0.00     0.167 HD
ENDBRANCH  14  16
ENDBRANCH   1  14
TORSDOF 2
ENDMDL
MODEL 9
REMARK VINA RESULT:      -5.8      3.765      5.571
REMARK  2 active torsions:
REMARK  status: ('A' for Active; 'I' for Inactive)
REMARK    1  A    between atoms: C_2  and  O_3 
REMARK    2  A    between atoms: C_2  and  C_4 
ROOT
HETATM    1  C   UNK N   1      11.211  -4.604  -0.100  0.00  0.00     0.087 A 
HETATM    2  C   UNK N   1      12.595  -4.381  -0.312  0.00  0.00     0.134 A 
HETATM    3  F   UNK N   1      13.055  -3.918  -1.502  0.00  0.00    -0.205 F 
HETATM    4  C   UNK N   1      13.528  -4.653   0.684  0.00  0.00     0.044 A 
HETATM    5  C   UNK N   1      13.126  -5.141   1.916  0.00  0.00     0.018 A 
HETATM    6  C   UNK N   1      11.771  -5.364   2.185  0.00  0.00     0.014 A 
HETATM    7  C   UNK N   1      11.384  -5.838   3.454  0.00  0.00     0.130 A 
HETATM    8  F   UNK N   1      12.311  -6.091   4.414  0.00  0.00    -0.205 F 
HETATM    9  C   UNK N   1      10.038  -6.044   3.747  0.00  0.00     0.085 A 
HETATM   10  C   UNK N   1       9.067  -5.782   2.789  0.00  0.00     0.120 A 
HETATM   11  F   UNK N   1       7.758  -5.973   3.089  0.00  0.00    -0.206 F 
HETATM   12  C   UNK N   1       9.426  -5.318   1.523  0.00  0.00     0.056 A 
HETATM   13  C   UNK N   1      10.788  -5.100   1.183  0.00  0.00     0.000 A 
ENDROOT
BRANCH   1  14
HETATM   14  C   UNK N   1      10.272  -4.301  -1.239  0.00  0.00     0.180 C 
HETATM   15  O   UNK N   1      10.010  -5.135  -2.089  0.00  0.00    -0.646 OA
BRANCH  14  16
HETATM   16  O   UNK N   1       9.715  -3.076  -1.347  0.00  0.00    -0.773 OA
HETATM   17  H   UNK N   1       9.099  -2.745  -0.678  0.00  0.00     0.167 HD
ENDBRANCH  14  16
ENDBRANCH   1  14
TORSDOF 2
ENDMDL
