MODEL 1
REMARK VINA RESULT:      -7.7      0.000      0.000
REMARK  3 active torsions:
REMARK  status: ('A' for Active; 'I' for Inactive)
REMARK    1  A    between atoms: C_4  and  C_5 
REMARK    2  A    between atoms: C_13  and  C_14 
REMARK    3  A    between atoms: C_14  and  O_16 
ROOT
HETATM    1  O   UNK N   1      10.536  -8.988   6.177  0.00  0.00    -0.273 OA
HETATM    2  C   UNK N   1      10.432  -7.825   5.819  0.00  0.00     0.222 C 
HETATM    3  C   UNK N   1      11.066  -7.393   4.521  0.00  0.00     0.113 C 
HETATM    4  C   UNK N   1      10.374  -6.124   4.005  0.00  0.00     0.049 C 
HETATM    5  C   UNK N   1      10.334  -5.060   5.121  0.00  0.00     0.131 C 
HETATM    6  C   UNK N   1       9.735  -5.662   6.376  0.00  0.00     0.080 C 
HETATM    7  N   UNK N   1       9.824  -6.926   6.640  0.00  0.00    -0.340 N 
ATOM      8  HN  UNK N   1       9.415  -7.267   7.511  1.00  0.00     0.167 HD
ENDROOT
BRANCH   4   9
HETATM    9  C   UNK N   1      11.046  -5.606   2.742  0.00  0.00    -0.014 A 
HETATM   10  C   UNK N   1      12.444  -5.432   2.696  0.00  0.00     0.013 A 
HETATM   11  C   UNK N   1      13.060  -4.948   1.539  0.00  0.00     0.043 A 
HETATM   12  C   UNK N   1      12.293  -4.634   0.416  0.00  0.00     0.119 A 
HETATM   13  F   UNK N   1      12.893  -4.163  -0.704  0.00  0.00    -0.206 F 
HETATM   14  C   UNK N   1      10.907  -4.803   0.447  0.00  0.00     0.085 A 
HETATM   15  C   UNK N   1      10.280  -5.286   1.601  0.00  0.00     0.126 A 
HETATM   16  F   UNK N   1       8.932  -5.440   1.605  0.00  0.00    -0.205 F 
ENDBRANCH   4   9
BRANCH   5  17
HETATM   17  C   UNK N   1       9.527  -3.861   4.691  0.00  0.00     0.149 C 
HETATM   18  O   UNK N   1      10.070  -2.773   4.565  0.00  0.00    -0.649 OA
BRANCH  17  19
HETATM   19  O   UNK N   1       8.205  -3.985   4.449  0.00  0.00    -0.776 OA
HETATM   20  H   UNK N   1       7.575  -4.085   5.177  0.00  0.00     0.167 HD
ENDBRANCH  17  19
ENDBRANCH   5  17
TORSDOF 3
ENDMDL
MODEL 2
REMARK VINA RESULT:      -7.4      3.272      5.283
REMARK  3 active torsions:
REMARK  status: ('A' for Active; 'I' for Inactive)
REMARK    1  A    between atoms: C_4  and  C_5 
REMARK    2  A    between atoms: C_13  and  C_14 
REMARK    3  A    between atoms: C_14  and  O_16 
ROOT
HETATM    1  O   UNK N   1      12.979  -4.168   1.876  0.00  0.00    -0.273 OA
HETATM    2  C   UNK N   1      12.229  -4.434   2.802  0.00  0.00     0.222 C 
HETATM    3  C   UNK N   1      11.985  -5.878   3.164  0.00  0.00     0.113 C 
HETATM    4  C   UNK N   1      11.506  -5.973   4.618  0.00  0.00     0.049 C 
HETATM    5  C   UNK N   1      10.318  -5.014   4.840  0.00  0.00     0.131 C 
HETATM    6  C   UNK N   1      10.692  -3.623   4.369  0.00  0.00     0.080 C 
HETATM    7  N   UNK N   1      11.561  -3.428   3.430  0.00  0.00    -0.340 N 
ATOM      8  HN  UNK N   1      11.756  -2.468   3.145  1.00  0.00     0.167 HD
ENDROOT
BRANCH   4   9
HETATM    9  C   UNK N   1      11.164  -7.407   4.992  0.00  0.00    -0.014 A 
HETATM   10  C   UNK N   1      10.108  -8.082   4.346  0.00  0.00     0.013 A 
HETATM   11  C   UNK N   1       9.788  -9.396   4.696  0.00  0.00     0.043 A 
HETATM   12  C   UNK N   1      10.515 -10.053   5.689  0.00  0.00     0.119 A 
HETATM   13  F   UNK N   1      10.201 -11.328   6.027  0.00  0.00    -0.206 F 
HETATM   14  C   UNK N   1      11.565  -9.398   6.336  0.00  0.00     0.085 A 
HETATM   15  C   UNK N   1      11.892  -8.081   5.994  0.00  0.00     0.126 A 
HETATM   16  F   UNK N   1      12.916  -7.467   6.640  0.00  0.00    -0.205 F 
ENDBRANCH   4   9
BRANCH   5  17
HETATM   17  C   UNK N   1       9.924  -4.974   6.296  0.00  0.00     0.149 C 
HETATM   18  O   UNK N   1       9.420  -5.957   6.818  0.00  0.00    -0.649 OA
BRANCH  17  19
HETATM   19  O   UNK N   1      10.125  -3.854   7.021  0.00  0.00    -0.776 OA
HETATM   20  H   UNK N   1       9.848  -3.807   7.948  0.00  0.00     0.167 HD
ENDBRANCH  17  19
ENDBRANCH   5  17
TORSDOF 3
ENDMDL
MODEL 3
REMARK VINA RESULT:      -7.2      2.884      4.972
REMARK  3 active torsions:
REMARK  status: ('A' for Active; 'I' for Inactive)
REMARK    1  A    between atoms: C_4  and  C_5 
REMARK    2  A    between atoms: C_13  and  C_14 
REMARK    3  A    between atoms: C_14  and  O_16 
ROOT
HETATM    1  O   UNK N   1      12.762  -4.168   1.741  0.00  0.00    -0.273 OA
HETATM    2  C   UNK N   1      12.058  -4.433   2.703  0.00  0.00     0.222 C 
HETATM    3  C   UNK N   1      11.896  -5.871   3.125  0.00  0.00     0.113 C 
HETATM    4  C   UNK N   1      11.473  -5.933   4.599  0.00  0.00     0.049 C 
HETATM    5  C   UNK N   1      10.250  -5.022   4.830  0.00  0.00     0.131 C 
HETATM    6  C   UNK N   1      10.540  -3.635   4.295  0.00  0.00     0.080 C 
HETATM    7  N   UNK N   1      11.366  -3.435   3.318  0.00  0.00    -0.340 N 
ATOM      8  HN  UNK N   1      11.505  -2.479   2.991  1.00  0.00     0.167 HD
ENDROOT
BRANCH   4   9
HETATM    9  C   UNK N   1      11.213  -7.366   5.037  0.00  0.00    -0.014 A 
HETATM   10  C   UNK N   1      12.010  -7.966   6.033  0.00  0.00     0.013 A 
HETATM   11  C   UNK N   1      11.777  -9.285   6.428  0.00  0.00     0.043 A 
HETATM   12  C   UNK N   1      10.747 -10.021   5.840  0.00  0.00     0.119 A 
HETATM   13  F   UNK N   1      10.524 -11.301   6.225  0.00  0.00    -0.206 F 
HETATM   14  C   UNK N   1       9.947  -9.439   4.854  0.00  0.00     0.085 A 
HETATM   15  C   UNK N   1      10.174  -8.119   4.450  0.00  0.00     0.126 A 
HETATM   16  F   UNK N   1       9.383  -7.578   3.488  0.00  0.00    -0.205 F 
ENDBRANCH   4   9
BRANCH   5  17
HETATM   17  C   UNK N   1       9.906  -4.945   6.296  0.00  0.00     0.149 C 
HETATM   18  O   UNK N   1       9.413  -5.911   6.859  0.00  0.00    -0.649 OA
BRANCH  17  19
HETATM   19  O   UNK N   1      10.139  -3.810   6.988  0.00  0.00    -0.776 OA
HETATM   20  H   UNK N   1      10.952  -3.302   6.848  0.00  0.00     0.167 HD
ENDBRANCH  17  19
ENDBRANCH   5  17
TORSDOF 3
ENDMDL
MODEL 4
REMARK VINA RESULT:      -6.7      5.054      7.475
REMARK  3 active torsions:
REMARK  status: ('A' for Active; 'I' for Inactive)
REMARK    1  A    between atoms: C_4  and  C_5 
REMARK    2  A    between atoms: C_13  and  C_14 
REMARK    3  A    between atoms: C_14  and  O_16 
ROOT
HETATM    1  O   UNK N   1      11.180  -6.277   5.999  0.00  0.00    -0.273 OA
HETATM    2  C   UNK N   1      10.871  -7.436   5.772  0.00  0.00     0.222 C 
HETATM    3  C   UNK N   1      11.879  -8.531   6.016  0.00  0.00     0.113 C 
HETATM    4  C   UNK N   1      11.152  -9.869   6.208  0.00  0.00     0.049 C 
HETATM    5  C   UNK N   1      10.173 -10.104   5.039  0.00  0.00     0.131 C 
HETATM    6  C   UNK N   1       9.275  -8.895   4.877  0.00  0.00     0.080 C 
HETATM    7  N   UNK N   1       9.657  -7.706   5.220  0.00  0.00    -0.340 N 
ATOM      8  HN  UNK N   1       9.012  -6.929   5.068  1.00  0.00     0.167 HD
ENDROOT
BRANCH   4   9
HETATM    9  C   UNK N   1      12.141 -11.014   6.368  0.00  0.00    -0.014 A 
HETATM   10  C   UNK N   1      12.818 -11.536   5.247  0.00  0.00     0.013 A 
HETATM   11  C   UNK N   1      13.719 -12.593   5.392  0.00  0.00     0.043 A 
HETATM   12  C   UNK N   1      13.958 -13.141   6.654  0.00  0.00     0.119 A 
HETATM   13  F   UNK N   1      14.832 -14.168   6.792  0.00  0.00    -0.206 F 
HETATM   14  C   UNK N   1      13.296 -12.633   7.773  0.00  0.00     0.085 A 
HETATM   15  C   UNK N   1      12.390 -11.575   7.638  0.00  0.00     0.126 A 
HETATM   16  F   UNK N   1      11.759 -11.101   8.742  0.00  0.00    -0.205 F 
ENDBRANCH   4   9
BRANCH   5  17
HETATM   17  C   UNK N   1       9.337 -11.336   5.278  0.00  0.00     0.149 C 
HETATM   18  O   UNK N   1       9.452 -12.304   4.541  0.00  0.00    -0.649 OA
BRANCH  17  19
HETATM   19  O   UNK N   1       8.458 -11.371   6.302  0.00  0.00    -0.776 OA
HETATM   20  H   UNK N   1       7.758 -10.706   6.377  0.00  0.00     0.167 HD
ENDBRANCH  17  19
ENDBRANCH   5  17
TORSDOF 3
ENDMDL
MODEL 5
REMARK VINA RESULT:      -6.4      3.097      5.047
REMARK  3 active torsions:
REMARK  status: ('A' for Active; 'I' for Inactive)
REMARK    1  A    between atoms: C_4  and  C_5 
REMARK    2  A    between atoms: C_13  and  C_14 
REMARK    3  A    between atoms: C_14  and  O_16 
ROOT
HETATM    1  O   UNK N   1      11.975  -3.760  -0.599  0.00  0.00    -0.273 OA
HETATM    2  C   UNK N   1      11.427  -3.724   0.491  0.00  0.00     0.222 C 
HETATM    3  C   UNK N   1      11.228  -5.005   1.261  0.00  0.00     0.113 C 
HETATM    4  C   UNK N   1      11.059  -4.692   2.753  0.00  0.00     0.049 C 
HETATM    5  C   UNK N   1       9.967  -3.618   2.941  0.00  0.00     0.131 C 
HETATM    6  C   UNK N   1      10.270  -2.425   2.056  0.00  0.00     0.080 C 
HETATM    7  N   UNK N   1      10.929  -2.542   0.949  0.00  0.00    -0.340 N 
ATOM      8  HN  UNK N   1      11.085  -1.704   0.388  1.00  0.00     0.167 HD
ENDROOT
BRANCH   4   9
HETATM    9  C   UNK N   1      10.766  -5.953   3.551  0.00  0.00    -0.014 A 
HETATM   10  C   UNK N   1       9.539  -6.629   3.394  0.00  0.00     0.013 A 
HETATM   11  C   UNK N   1       9.266  -7.783   4.133  0.00  0.00     0.043 A 
HETATM   12  C   UNK N   1      10.211  -8.277   5.034  0.00  0.00     0.119 A 
HETATM   13  F   UNK N   1       9.943  -9.396   5.750  0.00  0.00    -0.206 F 
HETATM   14  C   UNK N   1      11.432  -7.619   5.197  0.00  0.00     0.085 A 
HETATM   15  C   UNK N   1      11.713  -6.462   4.463  0.00  0.00     0.126 A 
HETATM   16  F   UNK N   1      12.907  -5.841   4.643  0.00  0.00    -0.205 F 
ENDBRANCH   4   9
BRANCH   5  17
HETATM   17  C   UNK N   1       9.885  -3.181   4.382  0.00  0.00     0.149 C 
HETATM   18  O   UNK N   1      10.873  -2.726   4.938  0.00  0.00    -0.649 OA
BRANCH  17  19
HETATM   19  O   UNK N   1       8.723  -3.293   5.059  0.00  0.00    -0.776 OA
HETATM   20  H   UNK N   1       7.982  -3.797   4.692  0.00  0.00     0.167 HD
ENDBRANCH  17  19
ENDBRANCH   5  17
TORSDOF 3
ENDMDL
MODEL 6
REMARK VINA RESULT:      -6.2      1.685      2.140
REMARK  3 active torsions:
REMARK  status: ('A' for Active; 'I' for Inactive)
REMARK    1  A    between atoms: C_4  and  C_5 
REMARK    2  A    between atoms: C_13  and  C_14 
REMARK    3  A    between atoms: C_14  and  O_16 
ROOT
HETATM    1  O   UNK N   1       8.793  -7.924   4.588  0.00  0.00    -0.273 OA
HETATM    2  C   UNK N   1       9.345  -6.840   4.485  0.00  0.00     0.222 C 
HETATM    3  C   UNK N   1      10.090  -6.508   3.217  0.00  0.00     0.113 C 
HETATM    4  C   UNK N   1      10.209  -4.985   3.072  0.00  0.00     0.049 C 
HETATM    5  C   UNK N   1      10.785  -4.379   4.368  0.00  0.00     0.131 C 
HETATM    6  C   UNK N   1       9.975  -4.857   5.557  0.00  0.00     0.080 C 
HETATM    7  N   UNK N   1       9.352  -5.992   5.550  0.00  0.00    -0.340 N 
ATOM      8  HN  UNK N   1       8.838  -6.265   6.388  1.00  0.00     0.167 HD
ENDROOT
BRANCH   4   9
HETATM    9  C   UNK N   1      11.033  -4.612   1.849  0.00  0.00    -0.014 A 
HETATM   10  C   UNK N   1      10.462  -3.854   0.806  0.00  0.00     0.013 A 
HETATM   11  C   UNK N   1      11.217  -3.520  -0.321  0.00  0.00     0.043 A 
HETATM   12  C   UNK N   1      12.546  -3.933  -0.423  0.00  0.00     0.119 A 
HETATM   13  F   UNK N   1      13.275  -3.608  -1.518  0.00  0.00    -0.206 F 
HETATM   14  C   UNK N   1      13.125  -4.682   0.604  0.00  0.00     0.085 A 
HETATM   15  C   UNK N   1      12.377  -5.024   1.736  0.00  0.00     0.126 A 
HETATM   16  F   UNK N   1      12.964  -5.754   2.719  0.00  0.00    -0.205 F 
ENDBRANCH   4   9
BRANCH   5  17
HETATM   17  C   UNK N   1      10.771  -2.872   4.311  0.00  0.00     0.149 C 
HETATM   18  O   UNK N   1      11.821  -2.250   4.371  0.00  0.00    -0.649 OA
BRANCH  17  19
HETATM   19  O   UNK N   1       9.601  -2.209   4.196  0.00  0.00    -0.776 OA
HETATM   20  H   UNK N   1       9.115  -2.202   3.359  0.00  0.00     0.167 HD
ENDBRANCH  17  19
ENDBRANCH   5  17
TORSDOF 3
ENDMDL
MODEL 7
REMARK VINA RESULT:      -6.2      3.595      4.656
REMARK  3 active torsions:
REMARK  status: ('A' for Active; 'I' for Inactive)
REMARK    1  A    between atoms: C_4  and  C_5 
REMARK    2  A    between atoms: C_13  and  C_14 
REMARK    3  A    between atoms: C_14  and  O_16 
ROOT
HETATM    1  O   UNK N   1      13.342  -5.405   1.887  0.00  0.00    -0.273 OA
HETATM    2  C   UNK N   1      12.460  -4.986   2.619  0.00  0.00     0.222 C 
HETATM    3  C   UNK N   1      12.257  -3.498   2.756  0.00  0.00     0.113 C 
HETATM    4  C   UNK N   1      10.827  -3.213   3.234  0.00  0.00     0.049 C 
HETATM    5  C   UNK N   1      10.520  -4.052   4.491  0.00  0.00     0.131 C 
HETATM    6  C   UNK N   1      10.835  -5.509   4.220  0.00  0.00     0.080 C 
HETATM    7  N   UNK N   1      11.737  -5.867   3.364  0.00  0.00    -0.340 N 
ATOM      8  HN  UNK N   1      11.916  -6.864   3.239  1.00  0.00     0.167 HD
ENDROOT
BRANCH   4   9
HETATM    9  C   UNK N   1      10.613  -1.725   3.471  0.00  0.00    -0.014 A 
HETATM   10  C   UNK N   1      11.499  -0.997   4.291  0.00  0.00     0.013 A 
HETATM   11  C   UNK N   1      11.296   0.367   4.515  0.00  0.00     0.043 A 
HETATM   12  C   UNK N   1      10.214   1.021   3.925  0.00  0.00     0.119 A 
HETATM   13  F   UNK N   1      10.020   2.345   4.145  0.00  0.00    -0.206 F 
HETATM   14  C   UNK N   1       9.330   0.313   3.108  0.00  0.00     0.085 A 
HETATM   15  C   UNK N   1       9.522  -1.054   2.879  0.00  0.00     0.126 A 
HETATM   16  F   UNK N   1       8.648  -1.720   2.082  0.00  0.00    -0.205 F 
ENDBRANCH   4   9
BRANCH   5  17
HETATM   17  C   UNK N   1       9.074  -3.907   4.894  0.00  0.00     0.149 C 
HETATM   18  O   UNK N   1       8.789  -3.581   6.037  0.00  0.00    -0.649 OA
BRANCH  17  19
HETATM   19  O   UNK N   1       8.093  -4.139   3.996  0.00  0.00    -0.776 OA
HETATM   20  H   UNK N   1       8.191  -4.827   3.322  0.00  0.00     0.167 HD
ENDBRANCH  17  19
ENDBRANCH   5  17
TORSDOF 3
ENDMDL
MODEL 8
REMARK VINA RESULT:      -6.2      1.522      2.217
REMARK  3 active torsions:
REMARK  status: ('A' for Active; 'I' for Inactive)
REMARK    1  A    between atoms: C_4  and  C_5 
REMARK    2  A    between atoms: C_13  and  C_14 
REMARK    3  A    between atoms: C_14  and  O_16 
ROOT
HETATM    1  O   UNK N   1      11.020  -8.945   5.688  0.00  0.00    -0.273 OA
HETATM    2  C   UNK N   1      10.715  -7.789   5.439  0.00  0.00     0.222 C 
HETATM    3  C   UNK N   1      10.496  -7.374   4.006  0.00  0.00     0.113 C 
HETATM    4  C   UNK N   1       9.615  -6.119   3.959  0.00  0.00     0.049 C 
HETATM    5  C   UNK N   1      10.198  -5.037   4.891  0.00  0.00     0.131 C 
HETATM    6  C   UNK N   1      10.424  -5.621   6.271  0.00  0.00     0.080 C 
HETATM    7  N   UNK N   1      10.665  -6.880   6.451  0.00  0.00    -0.340 N 
ATOM      8  HN  UNK N   1      10.826  -7.209   7.404  1.00  0.00     0.167 HD
ENDROOT
BRANCH   4   9
HETATM    9  C   UNK N   1       9.447  -5.618   2.533  0.00  0.00    -0.014 A 
HETATM   10  C   UNK N   1       8.161  -5.475   1.972  0.00  0.00     0.013 A 
HETATM   11  C   UNK N   1       8.007  -5.025   0.659  0.00  0.00     0.043 A 
HETATM   12  C   UNK N   1       9.128  -4.708  -0.109  0.00  0.00     0.119 A 
HETATM   13  F   UNK N   1       8.975  -4.272  -1.384  0.00  0.00    -0.206 F 
HETATM   14  C   UNK N   1      10.408  -4.843   0.434  0.00  0.00     0.085 A 
HETATM   15  C   UNK N   1      10.573  -5.296   1.747  0.00  0.00     0.126 A 
HETATM   16  F   UNK N   1      11.828  -5.419   2.250  0.00  0.00    -0.205 F 
ENDBRANCH   4   9
BRANCH   5  17
HETATM   17  C   UNK N   1       9.272  -3.850   4.982  0.00  0.00     0.149 C 
HETATM   18  O   UNK N   1       9.516  -2.836   4.344  0.00  0.00    -0.649 OA
BRANCH  17  19
HETATM   19  O   UNK N   1       8.176  -3.903   5.768  0.00  0.00    -0.776 OA
HETATM   20  H   UNK N   1       8.176  -4.426   6.583  0.00  0.00     0.167 HD
ENDBRANCH  17  19
ENDBRANCH   5  17
TORSDOF 3
ENDMDL
MODEL 9
REMARK VINA RESULT:      -6.1      3.046      3.814
REMARK  3 active torsions:
REMARK  status: ('A' for Active; 'I' for Inactive)
REMARK    1  A    between atoms: C_4  and  C_5 
REMARK    2  A    between atoms: C_13  and  C_14 
REMARK    3  A    between atoms: C_14  and  O_16 
ROOT
HETATM    1  O   UNK N   1       9.433  -6.192   7.014  0.00  0.00    -0.273 OA
HETATM    2  C   UNK N   1       9.914  -5.895   5.932  0.00  0.00     0.222 C 
HETATM    3  C   UNK N   1       9.793  -4.477   5.434  0.00  0.00     0.113 C 
HETATM    4  C   UNK N   1      10.890  -4.197   4.398  0.00  0.00     0.049 C 
HETATM    5  C   UNK N   1      10.876  -5.295   3.314  0.00  0.00     0.131 C 
HETATM    6  C   UNK N   1      10.935  -6.659   3.970  0.00  0.00     0.080 C 
HETATM    7  N   UNK N   1      10.470  -6.869   5.160  0.00  0.00    -0.340 N 
ATOM      8  HN  UNK N   1      10.523  -7.814   5.540  1.00  0.00     0.167 HD
ENDROOT
BRANCH   4   9
HETATM    9  C   UNK N   1      10.745  -2.804   3.806  0.00  0.00    -0.014 A 
HETATM   10  C   UNK N   1      11.751  -1.836   4.001  0.00  0.00     0.013 A 
HETATM   11  C   UNK N   1      11.613  -0.553   3.465  0.00  0.00     0.043 A 
HETATM   12  C   UNK N   1      10.476  -0.220   2.729  0.00  0.00     0.119 A 
HETATM   13  F   UNK N   1      10.344   1.026   2.211  0.00  0.00    -0.206 F 
HETATM   14  C   UNK N   1       9.471  -1.169   2.527  0.00  0.00     0.085 A 
HETATM   15  C   UNK N   1       9.599  -2.456   3.061  0.00  0.00     0.126 A 
HETATM   16  F   UNK N   1       8.607  -3.359   2.850  0.00  0.00    -0.205 F 
ENDBRANCH   4   9
BRANCH   5  17
HETATM   17  C   UNK N   1      12.038  -5.130   2.367  0.00  0.00     0.149 C 
HETATM   18  O   UNK N   1      11.849  -5.145   1.161  0.00  0.00    -0.649 OA
BRANCH  17  19
HETATM   19  O   UNK N   1      13.289  -4.968   2.851  0.00  0.00    -0.776 OA
HETATM   20  H   UNK N   1      13.786  -4.156   2.679  0.00  0.00     0.167 HD
ENDBRANCH  17  19
ENDBRANCH   5  17
TORSDOF 3
ENDMDL
