MODEL 1
REMARK VINA RESULT:      -6.9      0.000      0.000
REMARK  4 active torsions:
REMARK  status: ('A' for Active; 'I' for Inactive)
REMARK    1  A    between atoms: C_5  and  C_6 
REMARK    2  A    between atoms: C_6  and  O_8 
REMARK    3  A    between atoms: C_14  and  C_15 
REMARK    4  A    between atoms: C_15  and  O_17 
ROOT
HETATM    1  C   UNK N   1      12.036  -0.368   2.919  0.00  0.00     0.078 C 
HETATM    2  C   UNK N   1      11.854  -1.832   3.160  0.00  0.00     0.068 A 
HETATM    3  O   UNK N   1      11.054  -2.315   4.090  0.00  0.00    -0.312 OA
HETATM    4  C   UNK N   1      11.116  -3.624   4.059  0.00  0.00     0.107 A 
HETATM    5  C   UNK N   1      10.423  -4.528   4.878  0.00  0.00     0.072 A 
HETATM    6  C   UNK N   1      10.638  -5.905   4.653  0.00  0.00     0.024 A 
HETATM    7  C   UNK N   1      11.521  -6.337   3.642  0.00  0.00     0.044 A 
HETATM    8  C   UNK N   1      12.207  -5.404   2.845  0.00  0.00     0.130 A 
HETATM    9  F   UNK N   1      13.041  -5.847   1.875  0.00  0.00    -0.205 F 
HETATM   10  C   UNK N   1      11.988  -4.040   3.077  0.00  0.00     0.057 A 
HETATM   11  C   UNK N   1      12.486  -2.882   2.488  0.00  0.00     0.083 A 
ENDROOT
BRANCH   5  12
HETATM   12  C   UNK N   1       9.497  -4.062   5.940  0.00  0.00     0.179 C 
HETATM   13  O   UNK N   1       8.295  -3.999   5.722  0.00  0.00    -0.646 OA
BRANCH  12  14
HETATM   14  O   UNK N   1       9.972  -3.711   7.154  0.00  0.00    -0.773 OA
HETATM   15  H   UNK N   1       9.614  -2.951   7.633  0.00  0.00     0.167 HD
ENDBRANCH  12  14
ENDBRANCH   5  12
BRANCH  11  16
HETATM   16  C   UNK N   1      13.488  -2.744   1.398  0.00  0.00     0.179 C 
HETATM   17  O   UNK N   1      13.199  -2.139   0.377  0.00  0.00    -0.646 OA
BRANCH  16  18
HETATM   18  O   UNK N   1      14.733  -3.235   1.544  0.00  0.00    -0.773 OA
HETATM   19  H   UNK N   1      15.017  -3.645   2.374  0.00  0.00     0.167 HD
ENDBRANCH  16  18
ENDBRANCH  11  16
TORSDOF 4
ENDMDL
MODEL 2
REMARK VINA RESULT:      -6.8      1.166      1.342
REMARK  4 active torsions:
REMARK  status: ('A' for Active; 'I' for Inactive)
REMARK    1  A    between atoms: C_5  and  C_6 
REMARK    2  A    between atoms: C_6  and  O_8 
REMARK    3  A    between atoms: C_14  and  C_15 
REMARK    4  A    between atoms: C_15  and  O_17 
ROOT
HETATM    1  C   UNK N   1      10.790   0.061   3.905  0.00  0.00     0.078 C 
HETATM    2  C   UNK N   1      11.042  -1.410   3.829  0.00  0.00     0.068 A 
HETATM    3  O   UNK N   1      10.453  -2.284   4.622  0.00  0.00    -0.312 OA
HETATM    4  C   UNK N   1      10.884  -3.484   4.319  0.00  0.00     0.107 A 
HETATM    5  C   UNK N   1      10.512  -4.698   4.916  0.00  0.00     0.072 A 
HETATM    6  C   UNK N   1      11.101  -5.877   4.412  0.00  0.00     0.024 A 
HETATM    7  C   UNK N   1      12.026  -5.819   3.349  0.00  0.00     0.044 A 
HETATM    8  C   UNK N   1      12.384  -4.586   2.779  0.00  0.00     0.130 A 
HETATM    9  F   UNK N   1      13.268  -4.560   1.755  0.00  0.00    -0.205 F 
HETATM   10  C   UNK N   1      11.796  -3.421   3.288  0.00  0.00     0.057 A 
HETATM   11  C   UNK N   1      11.918  -2.072   2.964  0.00  0.00     0.083 A 
ENDROOT
BRANCH   5  12
HETATM   12  C   UNK N   1       9.537  -4.747   6.035  0.00  0.00     0.179 C 
HETATM   13  O   UNK N   1       9.565  -5.673   6.832  0.00  0.00    -0.646 OA
BRANCH  12  14
HETATM   14  O   UNK N   1       8.620  -3.767   6.184  0.00  0.00    -0.773 OA
HETATM   15  H   UNK N   1       8.068  -3.480   5.444  0.00  0.00     0.167 HD
ENDBRANCH  12  14
ENDBRANCH   5  12
BRANCH  11  16
HETATM   16  C   UNK N   1      12.792  -1.431   1.947  0.00  0.00     0.179 C 
HETATM   17  O   UNK N   1      12.609  -1.651   0.760  0.00  0.00    -0.646 OA
BRANCH  16  18
HETATM   18  O   UNK N   1      13.754  -0.564   2.317  0.00  0.00    -0.773 OA
HETATM   19  H   UNK N   1      14.634  -0.872   2.578  0.00  0.00     0.167 HD
ENDBRANCH  16  18
ENDBRANCH  11  16
TORSDOF 4
ENDMDL
MODEL 3
REMARK VINA RESULT:      -6.3      1.945      5.444
REMARK  4 active torsions:
REMARK  status: ('A' for Active; 'I' for Inactive)
REMARK    1  A    between atoms: C_5  and  C_6 
REMARK    2  A    between atoms: C_6  and  O_8 
REMARK    3  A    between atoms: C_14  and  C_15 
REMARK    4  A    between atoms: C_15  and  O_17 
ROOT
HETATM    1  C   UNK N   1      11.290  -6.552   5.014  0.00  0.00     0.078 C 
HETATM    2  C   UNK N   1      11.340  -5.251   4.280  0.00  0.00     0.068 A 
HETATM    3  O   UNK N   1      12.166  -5.020   3.278  0.00  0.00    -0.312 OA
HETATM    4  C   UNK N   1      11.977  -3.795   2.852  0.00  0.00     0.107 A 
HETATM    5  C   UNK N   1      12.645  -3.148   1.802  0.00  0.00     0.072 A 
HETATM    6  C   UNK N   1      12.263  -1.821   1.509  0.00  0.00     0.024 A 
HETATM    7  C   UNK N   1      11.248  -1.186   2.254  0.00  0.00     0.044 A 
HETATM    8  C   UNK N   1      10.605  -1.860   3.306  0.00  0.00     0.130 A 
HETATM    9  F   UNK N   1       9.627  -1.231   3.998  0.00  0.00    -0.205 F 
HETATM   10  C   UNK N   1      10.993  -3.177   3.590  0.00  0.00     0.057 A 
HETATM   11  C   UNK N   1      10.574  -4.110   4.533  0.00  0.00     0.083 A 
ENDROOT
BRANCH   5  12
HETATM   12  C   UNK N   1      13.713  -3.826   1.025  0.00  0.00     0.179 C 
HETATM   13  O   UNK N   1      13.421  -4.650   0.170  0.00  0.00    -0.646 OA
BRANCH  12  14
HETATM   14  O   UNK N   1      15.012  -3.534   1.251  0.00  0.00    -0.773 OA
HETATM   15  H   UNK N   1      15.701  -3.793   0.623  0.00  0.00     0.167 HD
ENDBRANCH  12  14
ENDBRANCH   5  12
BRANCH  11  16
HETATM   16  C   UNK N   1       9.557  -3.962   5.607  0.00  0.00     0.179 C 
HETATM   17  O   UNK N   1       8.368  -4.022   5.334  0.00  0.00    -0.646 OA
BRANCH  16  18
HETATM   18  O   UNK N   1       9.931  -3.813   6.892  0.00  0.00    -0.773 OA
HETATM   19  H   UNK N   1      10.863  -3.851   7.151  0.00  0.00     0.167 HD
ENDBRANCH  16  18
ENDBRANCH  11  16
TORSDOF 4
ENDMDL
MODEL 4
REMARK VINA RESULT:      -6.3      1.990      5.460
REMARK  4 active torsions:
REMARK  status: ('A' for Active; 'I' for Inactive)
REMARK    1  A    between atoms: C_5  and  C_6 
REMARK    2  A    between atoms: C_6  and  O_8 
REMARK    3  A    between atoms: C_14  and  C_15 
REMARK    4  A    between atoms: C_15  and  O_17 
ROOT
HETATM    1  C   UNK N   1       9.719  -6.722   3.895  0.00  0.00     0.078 C 
HETATM    2  C   UNK N   1      10.489  -5.471   3.621  0.00  0.00     0.068 A 
HETATM    3  O   UNK N   1      11.310  -5.340   2.597  0.00  0.00    -0.312 OA
HETATM    4  C   UNK N   1      11.838  -4.140   2.632  0.00  0.00     0.107 A 
HETATM    5  C   UNK N   1      12.759  -3.590   1.729  0.00  0.00     0.072 A 
HETATM    6  C   UNK N   1      13.182  -2.263   1.961  0.00  0.00     0.024 A 
HETATM    7  C   UNK N   1      12.688  -1.535   3.062  0.00  0.00     0.044 A 
HETATM    8  C   UNK N   1      11.772  -2.120   3.954  0.00  0.00     0.130 A 
HETATM    9  F   UNK N   1      11.306  -1.395   4.997  0.00  0.00    -0.205 F 
HETATM   10  C   UNK N   1      11.360  -3.438   3.716  0.00  0.00     0.057 A 
HETATM   11  C   UNK N   1      10.486  -4.296   4.378  0.00  0.00     0.083 A 
ENDROOT
BRANCH   5  12
HETATM   12  C   UNK N   1      13.273  -4.366   0.574  0.00  0.00     0.179 C 
HETATM   13  O   UNK N   1      14.448  -4.705   0.536  0.00  0.00    -0.646 OA
BRANCH  12  14
HETATM   14  O   UNK N   1      12.449  -4.711  -0.439  0.00  0.00    -0.773 OA
HETATM   15  H   UNK N   1      12.779  -4.813  -1.342  0.00  0.00     0.167 HD
ENDBRANCH  12  14
ENDBRANCH   5  12
BRANCH  11  16
HETATM   16  C   UNK N   1       9.718  -4.065   5.629  0.00  0.00     0.179 C 
HETATM   17  O   UNK N   1       8.650  -3.474   5.589  0.00  0.00    -0.646 OA
BRANCH  16  18
HETATM   18  O   UNK N   1      10.160  -4.547   6.806  0.00  0.00    -0.773 OA
HETATM   19  H   UNK N   1      11.105  -4.576   7.013  0.00  0.00     0.167 HD
ENDBRANCH  16  18
ENDBRANCH  11  16
TORSDOF 4
ENDMDL
MODEL 5
REMARK VINA RESULT:      -6.2      1.946      4.323
REMARK  4 active torsions:
REMARK  status: ('A' for Active; 'I' for Inactive)
REMARK    1  A    between atoms: C_5  and  C_6 
REMARK    2  A    between atoms: C_6  and  O_8 
REMARK    3  A    between atoms: C_14  and  C_15 
REMARK    4  A    between atoms: C_15  and  O_17 
ROOT
HETATM    1  C   UNK N   1       9.446  -4.545   6.213  0.00  0.00     0.078 C 
HETATM    2  C   UNK N   1      10.358  -4.142   5.100  0.00  0.00     0.068 A 
HETATM    3  O   UNK N   1      10.711  -2.891   4.874  0.00  0.00    -0.312 OA
HETATM    4  C   UNK N   1      11.505  -2.861   3.831  0.00  0.00     0.107 A 
HETATM    5  C   UNK N   1      12.108  -1.733   3.254  0.00  0.00     0.072 A 
HETATM    6  C   UNK N   1      12.942  -1.943   2.135  0.00  0.00     0.024 A 
HETATM    7  C   UNK N   1      13.148  -3.243   1.629  0.00  0.00     0.044 A 
HETATM    8  C   UNK N   1      12.521  -4.351   2.225  0.00  0.00     0.130 A 
HETATM    9  F   UNK N   1      12.745  -5.588   1.725  0.00  0.00    -0.205 F 
HETATM   10  C   UNK N   1      11.694  -4.131   3.334  0.00  0.00     0.057 A 
HETATM   11  C   UNK N   1      10.944  -4.978   4.145  0.00  0.00     0.083 A 
ENDROOT
BRANCH   5  12
HETATM   12  C   UNK N   1      11.882  -0.369   3.795  0.00  0.00     0.179 C 
HETATM   13  O   UNK N   1      11.790   0.585   3.036  0.00  0.00    -0.646 OA
BRANCH  12  14
HETATM   14  O   UNK N   1      11.769  -0.173   5.127  0.00  0.00    -0.773 OA
HETATM   15  H   UNK N   1      11.371   0.634   5.482  0.00  0.00     0.167 HD
ENDBRANCH  12  14
ENDBRANCH   5  12
BRANCH  11  16
HETATM   16  C   UNK N   1      10.758  -6.449   4.041  0.00  0.00     0.179 C 
HETATM   17  O   UNK N   1      11.579  -7.204   4.539  0.00  0.00    -0.646 OA
BRANCH  16  18
HETATM   18  O   UNK N   1       9.664  -6.963   3.447  0.00  0.00    -0.773 OA
HETATM   19  H   UNK N   1       8.823  -6.485   3.445  0.00  0.00     0.167 HD
ENDBRANCH  16  18
ENDBRANCH  11  16
TORSDOF 4
ENDMDL
MODEL 6
REMARK VINA RESULT:      -6.2      7.308      8.978
REMARK  4 active torsions:
REMARK  status: ('A' for Active; 'I' for Inactive)
REMARK    1  A    between atoms: C_5  and  C_6 
REMARK    2  A    between atoms: C_6  and  O_8 
REMARK    3  A    between atoms: C_14  and  C_15 
REMARK    4  A    between atoms: C_15  and  O_17 
ROOT
HETATM    1  C   UNK N   1      14.073 -13.576   8.605  0.00  0.00     0.078 C 
HETATM    2  C   UNK N   1      13.301 -12.636   7.738  0.00  0.00     0.068 A 
HETATM    3  O   UNK N   1      12.441 -11.757   8.214  0.00  0.00    -0.312 OA
HETATM    4  C   UNK N   1      11.923 -11.090   7.212  0.00  0.00     0.107 A 
HETATM    5  C   UNK N   1      10.970 -10.062   7.276  0.00  0.00     0.072 A 
HETATM    6  C   UNK N   1      10.565  -9.475   6.058  0.00  0.00     0.024 A 
HETATM    7  C   UNK N   1      11.107  -9.917   4.834  0.00  0.00     0.044 A 
HETATM    8  C   UNK N   1      12.054 -10.955   4.804  0.00  0.00     0.130 A 
HETATM    9  F   UNK N   1      12.564 -11.353   3.616  0.00  0.00    -0.205 F 
HETATM   10  C   UNK N   1      12.447 -11.533   6.018  0.00  0.00     0.057 A 
HETATM   11  C   UNK N   1      13.341 -12.550   6.343  0.00  0.00     0.083 A 
ENDROOT
BRANCH   5  12
HETATM   12  C   UNK N   1      10.406  -9.606   8.571  0.00  0.00     0.179 C 
HETATM   13  O   UNK N   1      11.135  -9.108   9.416  0.00  0.00    -0.646 OA
BRANCH  12  14
HETATM   14  O   UNK N   1       9.085  -9.731   8.822  0.00  0.00    -0.773 OA
HETATM   15  H   UNK N   1       8.598  -9.046   9.302  0.00  0.00     0.167 HD
ENDBRANCH  12  14
ENDBRANCH   5  12
BRANCH  11  16
HETATM   16  C   UNK N   1      14.160 -13.399   5.439  0.00  0.00     0.179 C 
HETATM   17  O   UNK N   1      13.647 -14.342   4.857  0.00  0.00    -0.646 OA
BRANCH  16  18
HETATM   18  O   UNK N   1      15.455 -13.108   5.210  0.00  0.00    -0.773 OA
HETATM   19  H   UNK N   1      15.729 -12.224   4.928  0.00  0.00     0.167 HD
ENDBRANCH  16  18
ENDBRANCH  11  16
TORSDOF 4
ENDMDL
MODEL 7
REMARK VINA RESULT:      -5.9      5.947      8.092
REMARK  4 active torsions:
REMARK  status: ('A' for Active; 'I' for Inactive)
REMARK    1  A    between atoms: C_5  and  C_6 
REMARK    2  A    between atoms: C_6  and  O_8 
REMARK    3  A    between atoms: C_14  and  C_15 
REMARK    4  A    between atoms: C_15  and  O_17 
ROOT
HETATM    1  C   UNK N   1       9.759  -7.776   4.127  0.00  0.00     0.078 C 
HETATM    2  C   UNK N   1      10.415  -8.707   5.094  0.00  0.00     0.068 A 
HETATM    3  O   UNK N   1      11.019  -9.820   4.727  0.00  0.00    -0.312 OA
HETATM    4  C   UNK N   1      11.482 -10.420   5.797  0.00  0.00     0.107 A 
HETATM    5  C   UNK N   1      12.191 -11.629   5.854  0.00  0.00     0.072 A 
HETATM    6  C   UNK N   1      12.606 -12.079   7.126  0.00  0.00     0.024 A 
HETATM    7  C   UNK N   1      12.309 -11.330   8.283  0.00  0.00     0.044 A 
HETATM    8  C   UNK N   1      11.589 -10.127   8.192  0.00  0.00     0.130 A 
HETATM    9  F   UNK N   1      11.326  -9.423   9.318  0.00  0.00    -0.205 F 
HETATM   10  C   UNK N   1      11.180  -9.690   6.925  0.00  0.00     0.057 A 
HETATM   11  C   UNK N   1      10.474  -8.574   6.484  0.00  0.00     0.083 A 
ENDROOT
BRANCH   5  12
HETATM   12  C   UNK N   1      12.497 -12.409   4.629  0.00  0.00     0.179 C 
HETATM   13  O   UNK N   1      13.508 -13.096   4.575  0.00  0.00    -0.646 OA
BRANCH  12  14
HETATM   14  O   UNK N   1      11.661 -12.372   3.570  0.00  0.00    -0.773 OA
HETATM   15  H   UNK N   1      11.327 -13.185   3.166  0.00  0.00     0.167 HD
ENDBRANCH  12  14
ENDBRANCH   5  12
BRANCH  11  16
HETATM   16  C   UNK N   1       9.875  -7.472   7.283  0.00  0.00     0.179 C 
HETATM   17  O   UNK N   1       9.861  -6.334   6.838  0.00  0.00    -0.646 OA
BRANCH  16  18
HETATM   18  O   UNK N   1       9.298  -7.722   8.473  0.00  0.00    -0.773 OA
HETATM   19  H   UNK N   1       9.338  -8.601   8.877  0.00  0.00     0.167 HD
ENDBRANCH  16  18
ENDBRANCH  11  16
TORSDOF 4
ENDMDL
MODEL 8
REMARK VINA RESULT:      -5.7      7.097      9.169
REMARK  4 active torsions:
REMARK  status: ('A' for Active; 'I' for Inactive)
REMARK    1  A    between atoms: C_5  and  C_6 
REMARK    2  A    between atoms: C_6  and  O_8 
REMARK    3  A    between atoms: C_14  and  C_15 
REMARK    4  A    between atoms: C_15  and  O_17 
ROOT
HETATM    1  C   UNK N   1      10.900  -9.555   9.393  0.00  0.00     0.078 C 
HETATM    2  C   UNK N   1      11.482 -10.357   8.275  0.00  0.00     0.068 A 
HETATM    3  O   UNK N   1      12.232 -11.424   8.468  0.00  0.00    -0.312 OA
HETATM    4  C   UNK N   1      12.595 -11.900   7.301  0.00  0.00     0.107 A 
HETATM    5  C   UNK N   1      13.394 -13.026   7.053  0.00  0.00     0.072 A 
HETATM    6  C   UNK N   1      13.645 -13.360   5.705  0.00  0.00     0.024 A 
HETATM    7  C   UNK N   1      13.106 -12.580   4.661  0.00  0.00     0.044 A 
HETATM    8  C   UNK N   1      12.316 -11.452   4.944  0.00  0.00     0.130 A 
HETATM    9  F   UNK N   1      11.804 -10.727   3.923  0.00  0.00    -0.205 F 
HETATM   10  C   UNK N   1      12.075 -11.128   6.286  0.00  0.00     0.057 A 
HETATM   11  C   UNK N   1      11.355 -10.111   6.905  0.00  0.00     0.083 A 
ENDROOT
BRANCH   5  12
HETATM   12  C   UNK N   1      13.957 -13.838   8.160  0.00  0.00     0.179 C 
HETATM   13  O   UNK N   1      14.268 -15.005   7.968  0.00  0.00    -0.646 OA
BRANCH  12  14
HETATM   14  O   UNK N   1      14.135 -13.295   9.384  0.00  0.00    -0.773 OA
HETATM   15  H   UNK N   1      14.617 -12.464   9.498  0.00  0.00     0.167 HD
ENDBRANCH  12  14
ENDBRANCH   5  12
BRANCH  11  16
HETATM   16  C   UNK N   1      10.617  -8.978   6.286  0.00  0.00     0.179 C 
HETATM   17  O   UNK N   1      11.024  -7.835   6.428  0.00  0.00    -0.646 OA
BRANCH  16  18
HETATM   18  O   UNK N   1       9.531  -9.201   5.522  0.00  0.00    -0.773 OA
HETATM   19  H   UNK N   1       9.594  -9.236   4.557  0.00  0.00     0.167 HD
ENDBRANCH  16  18
ENDBRANCH  11  16
TORSDOF 4
ENDMDL
MODEL 9
REMARK VINA RESULT:      -5.6      3.379      5.786
REMARK  4 active torsions:
REMARK  status: ('A' for Active; 'I' for Inactive)
REMARK    1  A    between atoms: C_5  and  C_6 
REMARK    2  A    between atoms: C_6  and  O_8 
REMARK    3  A    between atoms: C_14  and  C_15 
REMARK    4  A    between atoms: C_15  and  O_17 
ROOT
HETATM    1  C   UNK N   1       9.066  -7.319   4.489  0.00  0.00     0.078 C 
HETATM    2  C   UNK N   1       9.170  -6.046   3.713  0.00  0.00     0.068 A 
HETATM    3  O   UNK N   1       9.198  -6.006   2.396  0.00  0.00    -0.312 OA
HETATM    4  C   UNK N   1       9.302  -4.756   2.016  0.00  0.00     0.107 A 
HETATM    5  C   UNK N   1       9.362  -4.268   0.702  0.00  0.00     0.072 A 
HETATM    6  C   UNK N   1       9.460  -2.871   0.531  0.00  0.00     0.024 A 
HETATM    7  C   UNK N   1       9.496  -2.012   1.649  0.00  0.00     0.044 A 
HETATM    8  C   UNK N   1       9.443  -2.534   2.953  0.00  0.00     0.130 A 
HETATM    9  F   UNK N   1       9.470  -1.687   4.008  0.00  0.00    -0.205 F 
HETATM   10  C   UNK N   1       9.348  -3.923   3.112  0.00  0.00     0.057 A 
HETATM   11  C   UNK N   1       9.273  -4.751   4.228  0.00  0.00     0.083 A 
ENDROOT
BRANCH   5  12
HETATM   12  C   UNK N   1       9.325  -5.181  -0.468  0.00  0.00     0.179 C 
HETATM   13  O   UNK N   1      10.129  -5.044  -1.379  0.00  0.00    -0.646 OA
BRANCH  12  14
HETATM   14  O   UNK N   1       8.410  -6.173  -0.531  0.00  0.00    -0.773 OA
HETATM   15  H   UNK N   1       8.070  -6.488  -1.380  0.00  0.00     0.167 HD
ENDBRANCH  12  14
ENDBRANCH   5  12
BRANCH  11  16
HETATM   16  C   UNK N   1       9.315  -4.384   5.668  0.00  0.00     0.179 C 
HETATM   17  O   UNK N   1       8.441  -3.675   6.143  0.00  0.00    -0.646 OA
BRANCH  16  18
HETATM   18  O   UNK N   1      10.280  -4.869   6.473  0.00  0.00    -0.773 OA
HETATM   19  H   UNK N   1      10.587  -5.784   6.394  0.00  0.00     0.167 HD
ENDBRANCH  16  18
ENDBRANCH  11  16
TORSDOF 4
ENDMDL
