MODEL 1
REMARK VINA RESULT:      -7.2      0.000      0.000
REMARK  3 active torsions:
REMARK  status: ('A' for Active; 'I' for Inactive)
REMARK    1  A    between atoms: C_2  and  O_3 
REMARK    2  A    between atoms: C_2  and  C_4 
REMARK    3  A    between atoms: C_17  and  O_18 
ROOT
HETATM    1  C   UNK N   1      10.466  -4.664   4.982  0.00  0.00     0.087 A 
HETATM    2  C   UNK N   1      10.537  -6.078   5.066  0.00  0.00     0.134 A 
HETATM    3  F   UNK N   1       9.865  -6.749   6.038  0.00  0.00    -0.205 F 
HETATM    4  C   UNK N   1      11.258  -6.820   4.119  0.00  0.00     0.044 A 
HETATM    5  C   UNK N   1      11.920  -6.178   3.071  0.00  0.00     0.014 A 
HETATM    6  C   UNK N   1      11.886  -4.788   3.003  0.00  0.00    -0.013 A 
HETATM    7  C   UNK N   1      11.201  -4.027   3.942  0.00  0.00     0.004 A 
HETATM    8  C   UNK N   1      11.454  -2.621   3.618  0.00  0.00    -0.015 A 
HETATM    9  C   UNK N   1      11.128  -1.433   4.291  0.00  0.00     0.013 A 
HETATM   10  C   UNK N   1      11.537  -0.207   3.749  0.00  0.00     0.001 A 
HETATM   11  C   UNK N   1      12.276  -0.168   2.556  0.00  0.00     0.001 A 
HETATM   12  C   UNK N   1      12.628  -1.361   1.910  0.00  0.00     0.011 A 
HETATM   13  C   UNK N   1      12.218  -2.576   2.463  0.00  0.00    -0.014 A 
HETATM   14  C   UNK N   1      12.559  -3.949   1.947  0.00  0.00     0.186 A 
ENDROOT
BRANCH   1  15
HETATM   15  C   UNK N   1       9.582  -3.937   5.931  0.00  0.00     0.180 C 
HETATM   16  O   UNK N   1       8.519  -3.468   5.546  0.00  0.00    -0.646 OA
BRANCH  15  17
HETATM   17  O   UNK N   1      10.026  -3.628   7.165  0.00  0.00    -0.773 OA
HETATM   18  H   UNK N   1       9.978  -2.725   7.508  0.00  0.00     0.167 HD
ENDBRANCH  15  17
ENDBRANCH   1  15
BRANCH  14  19
HETATM   19  O   UNK N   1      13.944  -4.165   1.970  0.00  0.00    -0.386 OA
HETATM   20  H   UNK N   1      14.368  -3.269   1.901  0.00  0.00     0.210 HD
ENDBRANCH  14  19
TORSDOF 3
ENDMDL
MODEL 2
REMARK VINA RESULT:      -6.8      1.854      2.095
REMARK  3 active torsions:
REMARK  status: ('A' for Active; 'I' for Inactive)
REMARK    1  A    between atoms: C_2  and  O_3 
REMARK    2  A    between atoms: C_2  and  C_4 
REMARK    3  A    between atoms: C_17  and  O_18 
ROOT
HETATM    1  C   UNK N   1       9.915  -4.893   4.453  0.00  0.00     0.087 A 
HETATM    2  C   UNK N   1      10.366  -5.865   5.383  0.00  0.00     0.134 A 
HETATM    3  F   UNK N   1       9.690  -6.083   6.541  0.00  0.00    -0.205 F 
HETATM    4  C   UNK N   1      11.489  -6.659   5.105  0.00  0.00     0.044 A 
HETATM    5  C   UNK N   1      12.184  -6.508   3.904  0.00  0.00     0.014 A 
HETATM    6  C   UNK N   1      11.770  -5.530   3.003  0.00  0.00    -0.013 A 
HETATM    7  C   UNK N   1      10.677  -4.712   3.264  0.00  0.00     0.004 A 
HETATM    8  C   UNK N   1      10.589  -3.755   2.160  0.00  0.00    -0.015 A 
HETATM    9  C   UNK N   1       9.773  -2.630   1.961  0.00  0.00     0.013 A 
HETATM   10  C   UNK N   1       9.936  -1.865   0.797  0.00  0.00     0.001 A 
HETATM   11  C   UNK N   1      10.913  -2.210  -0.149  0.00  0.00     0.001 A 
HETATM   12  C   UNK N   1      11.748  -3.314   0.075  0.00  0.00     0.011 A 
HETATM   13  C   UNK N   1      11.577  -4.065   1.240  0.00  0.00    -0.014 A 
HETATM   14  C   UNK N   1      12.420  -5.234   1.676  0.00  0.00     0.186 A 
ENDROOT
BRANCH   1  15
HETATM   15  C   UNK N   1       8.647  -4.172   4.736  0.00  0.00     0.180 C 
HETATM   16  O   UNK N   1       8.538  -3.490   5.747  0.00  0.00    -0.646 OA
BRANCH  15  17
HETATM   17  O   UNK N   1       7.553  -4.410   3.986  0.00  0.00    -0.773 OA
HETATM   18  H   UNK N   1       7.622  -4.769   3.091  0.00  0.00     0.167 HD
ENDBRANCH  15  17
ENDBRANCH   1  15
BRANCH  14  19
HETATM   19  O   UNK N   1      13.754  -4.848   1.869  0.00  0.00    -0.386 OA
HETATM   20  H   UNK N   1      14.221  -5.637   2.250  0.00  0.00     0.210 HD
ENDBRANCH  14  19
TORSDOF 3
ENDMDL
MODEL 3
REMARK VINA RESULT:      -6.4      3.753      5.859
REMARK  3 active torsions:
REMARK  status: ('A' for Active; 'I' for Inactive)
REMARK    1  A    between atoms: C_2  and  O_3 
REMARK    2  A    between atoms: C_2  and  C_4 
REMARK    3  A    between atoms: C_17  and  O_18 
ROOT
HETATM    1  C   UNK N   1      12.267  -4.017   0.388  0.00  0.00     0.087 A 
HETATM    2  C   UNK N   1      11.951  -3.347  -0.821  0.00  0.00     0.134 A 
HETATM    3  F   UNK N   1      12.890  -2.613  -1.473  0.00  0.00    -0.205 F 
HETATM    4  C   UNK N   1      10.678  -3.467  -1.399  0.00  0.00     0.044 A 
HETATM    5  C   UNK N   1       9.697  -4.253  -0.792  0.00  0.00     0.014 A 
HETATM    6  C   UNK N   1       9.988  -4.884   0.414  0.00  0.00    -0.013 A 
HETATM    7  C   UNK N   1      11.231  -4.761   1.022  0.00  0.00     0.004 A 
HETATM    8  C   UNK N   1      11.152  -5.469   2.301  0.00  0.00    -0.015 A 
HETATM    9  C   UNK N   1      12.053  -5.565   3.374  0.00  0.00     0.013 A 
HETATM   10  C   UNK N   1      11.687  -6.302   4.509  0.00  0.00     0.001 A 
HETATM   11  C   UNK N   1      10.430  -6.924   4.578  0.00  0.00     0.001 A 
HETATM   12  C   UNK N   1       9.523  -6.793   3.517  0.00  0.00     0.011 A 
HETATM   13  C   UNK N   1       9.899  -6.052   2.394  0.00  0.00    -0.014 A 
HETATM   14  C   UNK N   1       9.036  -5.751   1.198  0.00  0.00     0.186 A 
ENDROOT
BRANCH   1  15
HETATM   15  C   UNK N   1      13.666  -3.963   0.888  0.00  0.00     0.180 C 
HETATM   16  O   UNK N   1      14.431  -4.896   0.679  0.00  0.00    -0.646 OA
BRANCH  15  17
HETATM   17  O   UNK N   1      14.046  -2.981   1.728  0.00  0.00    -0.773 OA
HETATM   18  H   UNK N   1      13.566  -2.804   2.549  0.00  0.00     0.167 HD
ENDBRANCH  15  17
ENDBRANCH   1  15
BRANCH  14  19
HETATM   19  O   UNK N   1       7.904  -5.011   1.568  0.00  0.00    -0.386 OA
HETATM   20  H   UNK N   1       7.529  -5.457   2.372  0.00  0.00     0.210 HD
ENDBRANCH  14  19
TORSDOF 3
ENDMDL
MODEL 4
REMARK VINA RESULT:      -6.4      2.654      4.559
REMARK  3 active torsions:
REMARK  status: ('A' for Active; 'I' for Inactive)
REMARK    1  A    between atoms: C_2  and  O_3 
REMARK    2  A    between atoms: C_2  and  C_4 
REMARK    3  A    between atoms: C_17  and  O_18 
ROOT
HETATM    1  C   UNK N   1      12.139  -1.547   3.472  0.00  0.00     0.087 A 
HETATM    2  C   UNK N   1      12.927  -0.863   2.511  0.00  0.00     0.134 A 
HETATM    3  F   UNK N   1      13.149   0.473   2.621  0.00  0.00    -0.205 F 
HETATM    4  C   UNK N   1      13.536  -1.557   1.456  0.00  0.00     0.044 A 
HETATM    5  C   UNK N   1      13.380  -2.939   1.333  0.00  0.00     0.014 A 
HETATM    6  C   UNK N   1      12.577  -3.611   2.250  0.00  0.00    -0.013 A 
HETATM    7  C   UNK N   1      11.941  -2.945   3.290  0.00  0.00     0.004 A 
HETATM    8  C   UNK N   1      11.121  -3.934   3.991  0.00  0.00    -0.015 A 
HETATM    9  C   UNK N   1      10.178  -3.806   5.024  0.00  0.00     0.013 A 
HETATM   10  C   UNK N   1       9.508  -4.948   5.484  0.00  0.00     0.001 A 
HETATM   11  C   UNK N   1       9.766  -6.203   4.910  0.00  0.00     0.001 A 
HETATM   12  C   UNK N   1      10.682  -6.317   3.855  0.00  0.00     0.011 A 
HETATM   13  C   UNK N   1      11.339  -5.170   3.404  0.00  0.00    -0.014 A 
HETATM   14  C   UNK N   1      12.298  -5.092   2.245  0.00  0.00     0.186 A 
ENDROOT
BRANCH   1  15
HETATM   15  C   UNK N   1      11.625  -0.787   4.643  0.00  0.00     0.180 C 
HETATM   16  O   UNK N   1      10.688  -0.012   4.511  0.00  0.00    -0.646 OA
BRANCH  15  17
HETATM   17  O   UNK N   1      12.301  -0.805   5.809  0.00  0.00    -0.773 OA
HETATM   18  H   UNK N   1      12.932  -0.110   6.038  0.00  0.00     0.167 HD
ENDBRANCH  15  17
ENDBRANCH   1  15
BRANCH  14  19
HETATM   19  O   UNK N   1      11.670  -5.460   1.047  0.00  0.00    -0.386 OA
HETATM   20  H   UNK N   1      10.766  -5.788   1.294  0.00  0.00     0.210 HD
ENDBRANCH  14  19
TORSDOF 3
ENDMDL
MODEL 5
REMARK VINA RESULT:      -6.3      1.769      2.519
REMARK  3 active torsions:
REMARK  status: ('A' for Active; 'I' for Inactive)
REMARK    1  A    between atoms: C_2  and  O_3 
REMARK    2  A    between atoms: C_2  and  C_4 
REMARK    3  A    between atoms: C_17  and  O_18 
ROOT
HETATM    1  C   UNK N   1      11.485  -3.267   3.607  0.00  0.00     0.087 A 
HETATM    2  C   UNK N   1      11.276  -4.542   4.192  0.00  0.00     0.134 A 
HETATM    3  F   UNK N   1      10.601  -4.665   5.365  0.00  0.00    -0.205 F 
HETATM    4  C   UNK N   1      11.714  -5.709   3.548  0.00  0.00     0.044 A 
HETATM    5  C   UNK N   1      12.364  -5.636   2.315  0.00  0.00     0.014 A 
HETATM    6  C   UNK N   1      12.606  -4.386   1.753  0.00  0.00    -0.013 A 
HETATM    7  C   UNK N   1      12.207  -3.213   2.381  0.00  0.00     0.004 A 
HETATM    8  C   UNK N   1      12.700  -2.102   1.564  0.00  0.00    -0.015 A 
HETATM    9  C   UNK N   1      12.705  -0.714   1.776  0.00  0.00     0.013 A 
HETATM   10  C   UNK N   1      13.288   0.122   0.814  0.00  0.00     0.001 A 
HETATM   11  C   UNK N   1      13.873  -0.422  -0.340  0.00  0.00     0.001 A 
HETATM   12  C   UNK N   1      13.896  -1.811  -0.527  0.00  0.00     0.011 A 
HETATM   13  C   UNK N   1      13.315  -2.633   0.442  0.00  0.00    -0.014 A 
HETATM   14  C   UNK N   1      13.306  -4.139   0.441  0.00  0.00     0.186 A 
ENDROOT
BRANCH   1  15
HETATM   15  C   UNK N   1      10.886  -2.075   4.264  0.00  0.00     0.180 C 
HETATM   16  O   UNK N   1      11.539  -1.420   5.065  0.00  0.00    -0.646 OA
BRANCH  15  17
HETATM   17  O   UNK N   1       9.570  -1.819   4.127  0.00  0.00    -0.773 OA
HETATM   18  H   UNK N   1       8.941  -2.515   3.893  0.00  0.00     0.167 HD
ENDBRANCH  15  17
ENDBRANCH   1  15
BRANCH  14  19
HETATM   19  O   UNK N   1      14.611  -4.649   0.488  0.00  0.00    -0.386 OA
HETATM   20  H   UNK N   1      14.683  -5.156   1.339  0.00  0.00     0.210 HD
ENDBRANCH  14  19
TORSDOF 3
ENDMDL
MODEL 6
REMARK VINA RESULT:      -6.3      3.288      4.058
REMARK  3 active torsions:
REMARK  status: ('A' for Active; 'I' for Inactive)
REMARK    1  A    between atoms: C_2  and  O_3 
REMARK    2  A    between atoms: C_2  and  C_4 
REMARK    3  A    between atoms: C_17  and  O_18 
ROOT
HETATM    1  C   UNK N   1      10.023  -5.531   1.900  0.00  0.00     0.087 A 
HETATM    2  C   UNK N   1      10.143  -5.960   3.246  0.00  0.00     0.134 A 
HETATM    3  F   UNK N   1       9.050  -6.367   3.945  0.00  0.00    -0.205 F 
HETATM    4  C   UNK N   1      11.397  -6.025   3.871  0.00  0.00     0.044 A 
HETATM    5  C   UNK N   1      12.554  -5.669   3.177  0.00  0.00     0.014 A 
HETATM    6  C   UNK N   1      12.440  -5.211   1.867  0.00  0.00    -0.013 A 
HETATM    7  C   UNK N   1      11.209  -5.112   1.232  0.00  0.00     0.004 A 
HETATM    8  C   UNK N   1      11.453  -4.515  -0.083  0.00  0.00    -0.015 A 
HETATM    9  C   UNK N   1      10.578  -4.070  -1.086  0.00  0.00     0.013 A 
HETATM   10  C   UNK N   1      11.108  -3.500  -2.251  0.00  0.00     0.001 A 
HETATM   11  C   UNK N   1      12.496  -3.362  -2.408  0.00  0.00     0.001 A 
HETATM   12  C   UNK N   1      13.361  -3.777  -1.386  0.00  0.00     0.011 A 
HETATM   13  C   UNK N   1      12.820  -4.339  -0.228  0.00  0.00    -0.014 A 
HETATM   14  C   UNK N   1      13.587  -4.776   0.991  0.00  0.00     0.186 A 
ENDROOT
BRANCH   1  15
HETATM   15  C   UNK N   1       8.691  -5.607   1.244  0.00  0.00     0.180 C 
HETATM   16  O   UNK N   1       8.525  -6.325   0.267  0.00  0.00    -0.646 OA
BRANCH  15  17
HETATM   17  O   UNK N   1       7.713  -4.750   1.600  0.00  0.00    -0.773 OA
HETATM   18  H   UNK N   1       7.037  -4.465   0.971  0.00  0.00     0.167 HD
ENDBRANCH  15  17
ENDBRANCH   1  15
BRANCH  14  19
HETATM   19  O   UNK N   1      14.257  -3.693   1.578  0.00  0.00    -0.386 OA
HETATM   20  H   UNK N   1      14.532  -3.992   2.484  0.00  0.00     0.210 HD
ENDBRANCH  14  19
TORSDOF 3
ENDMDL
MODEL 7
REMARK VINA RESULT:      -6.2      3.210      4.360
REMARK  3 active torsions:
REMARK  status: ('A' for Active; 'I' for Inactive)
REMARK    1  A    between atoms: C_2  and  O_3 
REMARK    2  A    between atoms: C_2  and  C_4 
REMARK    3  A    between atoms: C_17  and  O_18 
ROOT
HETATM    1  C   UNK N   1      10.620  -4.749   2.892  0.00  0.00     0.087 A 
HETATM    2  C   UNK N   1       9.497  -5.057   3.703  0.00  0.00     0.134 A 
HETATM    3  F   UNK N   1       9.603  -5.066   5.058  0.00  0.00    -0.205 F 
HETATM    4  C   UNK N   1       8.243  -5.309   3.130  0.00  0.00     0.044 A 
HETATM    5  C   UNK N   1       8.074  -5.258   1.745  0.00  0.00     0.014 A 
HETATM    6  C   UNK N   1       9.178  -4.993   0.940  0.00  0.00    -0.013 A 
HETATM    7  C   UNK N   1      10.438  -4.766   1.480  0.00  0.00     0.004 A 
HETATM    8  C   UNK N   1      11.363  -4.616   0.355  0.00  0.00    -0.015 A 
HETATM    9  C   UNK N   1      12.761  -4.500   0.302  0.00  0.00     0.013 A 
HETATM   10  C   UNK N   1      13.392  -4.400  -0.945  0.00  0.00     0.001 A 
HETATM   11  C   UNK N   1      12.637  -4.431  -2.128  0.00  0.00     0.001 A 
HETATM   12  C   UNK N   1      11.245  -4.583  -2.068  0.00  0.00     0.011 A 
HETATM   13  C   UNK N   1      10.630  -4.686  -0.819  0.00  0.00    -0.014 A 
HETATM   14  C   UNK N   1       9.164  -4.919  -0.565  0.00  0.00     0.186 A 
ENDROOT
BRANCH   1  15
HETATM   15  C   UNK N   1      11.893  -4.361   3.554  0.00  0.00     0.180 C 
HETATM   16  O   UNK N   1      12.039  -3.228   3.993  0.00  0.00    -0.646 OA
BRANCH  15  17
HETATM   17  O   UNK N   1      12.956  -5.189   3.511  0.00  0.00    -0.773 OA
HETATM   18  H   UNK N   1      13.861  -4.850   3.528  0.00  0.00     0.167 HD
ENDBRANCH  15  17
ENDBRANCH   1  15
BRANCH  14  19
HETATM   19  O   UNK N   1       8.750  -6.145  -1.104  0.00  0.00    -0.386 OA
HETATM   20  H   UNK N   1       8.570  -6.744  -0.332  0.00  0.00     0.210 HD
ENDBRANCH  14  19
TORSDOF 3
ENDMDL
MODEL 8
REMARK VINA RESULT:      -5.8      2.683      5.715
REMARK  3 active torsions:
REMARK  status: ('A' for Active; 'I' for Inactive)
REMARK    1  A    between atoms: C_2  and  O_3 
REMARK    2  A    between atoms: C_2  and  C_4 
REMARK    3  A    between atoms: C_17  and  O_18 
ROOT
HETATM    1  C   UNK N   1      12.553  -2.823   1.261  0.00  0.00     0.087 A 
HETATM    2  C   UNK N   1      12.467  -1.517   0.715  0.00  0.00     0.134 A 
HETATM    3  F   UNK N   1      13.444  -1.039  -0.099  0.00  0.00    -0.205 F 
HETATM    4  C   UNK N   1      11.347  -0.708   0.959  0.00  0.00     0.044 A 
HETATM    5  C   UNK N   1      10.293  -1.176   1.745  0.00  0.00     0.014 A 
HETATM    6  C   UNK N   1      10.387  -2.442   2.316  0.00  0.00    -0.013 A 
HETATM    7  C   UNK N   1      11.496  -3.255   2.112  0.00  0.00     0.004 A 
HETATM    8  C   UNK N   1      11.298  -4.456   2.924  0.00  0.00    -0.015 A 
HETATM    9  C   UNK N   1      12.141  -5.544   3.206  0.00  0.00     0.013 A 
HETATM   10  C   UNK N   1      11.686  -6.556   4.063  0.00  0.00     0.001 A 
HETATM   11  C   UNK N   1      10.410  -6.477   4.642  0.00  0.00     0.001 A 
HETATM   12  C   UNK N   1       9.590  -5.370   4.384  0.00  0.00     0.011 A 
HETATM   13  C   UNK N   1      10.057  -4.367   3.533  0.00  0.00    -0.014 A 
HETATM   14  C   UNK N   1       9.346  -3.083   3.197  0.00  0.00     0.186 A 
ENDROOT
BRANCH   1  15
HETATM   15  C   UNK N   1      13.696  -3.687   0.865  0.00  0.00     0.180 C 
HETATM   16  O   UNK N   1      13.528  -4.611   0.080  0.00  0.00    -0.646 OA
BRANCH  15  17
HETATM   17  O   UNK N   1      14.877  -3.578   1.505  0.00  0.00    -0.773 OA
HETATM   18  H   UNK N   1      15.717  -3.636   1.029  0.00  0.00     0.167 HD
ENDBRANCH  15  17
ENDBRANCH   1  15
BRANCH  14  19
HETATM   19  O   UNK N   1       9.142  -2.306   4.345  0.00  0.00    -0.386 OA
HETATM   20  H   UNK N   1      10.044  -2.077   4.692  0.00  0.00     0.210 HD
ENDBRANCH  14  19
TORSDOF 3
ENDMDL
MODEL 9
REMARK VINA RESULT:      -5.7      3.644      4.878
REMARK  3 active torsions:
REMARK  status: ('A' for Active; 'I' for Inactive)
REMARK    1  A    between atoms: C_2  and  O_3 
REMARK    2  A    between atoms: C_2  and  C_4 
REMARK    3  A    between atoms: C_17  and  O_18 
ROOT
HETATM    1  C   UNK N   1       9.131  -5.111   0.603  0.00  0.00     0.087 A 
HETATM    2  C   UNK N   1       8.159  -5.397   1.596  0.00  0.00     0.134 A 
HETATM    3  F   UNK N   1       6.838  -5.441   1.280  0.00  0.00    -0.205 F 
HETATM    4  C   UNK N   1       8.541  -5.691   2.913  0.00  0.00     0.044 A 
HETATM    5  C   UNK N   1       9.890  -5.709   3.271  0.00  0.00     0.014 A 
HETATM    6  C   UNK N   1      10.848  -5.393   2.311  0.00  0.00    -0.013 A 
HETATM    7  C   UNK N   1      10.496  -5.073   1.006  0.00  0.00     0.004 A 
HETATM    8  C   UNK N   1      11.731  -4.711   0.308  0.00  0.00    -0.015 A 
HETATM    9  C   UNK N   1      11.962  -4.186  -0.973  0.00  0.00     0.013 A 
HETATM   10  C   UNK N   1      13.277  -3.901  -1.368  0.00  0.00     0.001 A 
HETATM   11  C   UNK N   1      14.347  -4.124  -0.488  0.00  0.00     0.001 A 
HETATM   12  C   UNK N   1      14.104  -4.615   0.802  0.00  0.00     0.011 A 
HETATM   13  C   UNK N   1      12.789  -4.890   1.184  0.00  0.00    -0.014 A 
HETATM   14  C   UNK N   1      12.337  -5.355   2.543  0.00  0.00     0.186 A 
ENDROOT
BRANCH   1  15
HETATM   15  C   UNK N   1       8.682  -4.937  -0.804  0.00  0.00     0.180 C 
HETATM   16  O   UNK N   1       8.285  -3.847  -1.193  0.00  0.00    -0.646 OA
BRANCH  15  17
HETATM   17  O   UNK N   1       8.534  -6.011  -1.603  0.00  0.00    -0.773 OA
HETATM   18  H   UNK N   1       7.660  -6.320  -1.878  0.00  0.00     0.167 HD
ENDBRANCH  15  17
ENDBRANCH   1  15
BRANCH  14  19
HETATM   19  O   UNK N   1      12.647  -4.407   3.528  0.00  0.00    -0.386 OA
HETATM   20  H   UNK N   1      12.431  -4.829   4.400  0.00  0.00     0.210 HD
ENDBRANCH  14  19
TORSDOF 3
ENDMDL
