MODEL 1
REMARK VINA RESULT:      -6.4      0.000      0.000
REMARK  6 active torsions:
REMARK  status: ('A' for Active; 'I' for Inactive)
REMARK    1  A    between atoms: C_2  and  O_3 
REMARK    2  A    between atoms: C_2  and  C_4 
REMARK    3  A    between atoms: C_4  and  O_5 
REMARK    4  A    between atoms: O_5  and  C_6 
REMARK    5  A    between atoms: C_11  and  C_12 
REMARK    6  A    between atoms: C_12  and  O_14 
ROOT
HETATM    1  C   UNK N   1      10.682  -7.681   5.479  0.00  0.00     0.109 A 
HETATM    2  C   UNK N   1      11.419  -7.505   4.294  0.00  0.00     0.043 A 
HETATM    3  C   UNK N   1      11.539  -6.241   3.722  0.00  0.00     0.046 A 
HETATM    4  C   UNK N   1      10.932  -5.131   4.313  0.00  0.00     0.136 A 
HETATM    5  F   UNK N   1      11.076  -3.919   3.720  0.00  0.00    -0.205 F 
HETATM    6  C   UNK N   1      10.186  -5.277   5.502  0.00  0.00     0.117 A 
HETATM    7  C   UNK N   1      10.069  -6.566   6.078  0.00  0.00     0.169 A 
HETATM    8  F   UNK N   1       9.363  -6.746   7.225  0.00  0.00    -0.202 F 
ENDROOT
BRANCH   1   9
HETATM    9  O   UNK N   1      10.551  -8.898   6.077  0.00  0.00    -0.338 OA
BRANCH   9  10
HETATM   10  C   UNK N   1      11.268  -9.374   7.166  0.00  0.00     0.285 C 
BRANCH  10  11
HETATM   11  C   UNK N   1      10.385  -9.575   8.367  0.00  0.00     0.164 C 
HETATM   12  O   UNK N   1      10.754  -9.190   9.466  0.00  0.00    -0.648 OA
BRANCH  11  13
HETATM   13  O   UNK N   1       9.201 -10.213   8.236  0.00  0.00    -0.775 OA
HETATM   14  H   UNK N   1       8.393  -9.726   8.017  0.00  0.00     0.167 HD
ENDBRANCH  11  13
ENDBRANCH  10  11
ENDBRANCH   9  10
ENDBRANCH   1   9
BRANCH   6  15
HETATM   15  C   UNK N   1       9.536  -4.088   6.134  0.00  0.00     0.182 C 
HETATM   16  O   UNK N   1       8.498  -3.633   5.674  0.00  0.00    -0.646 OA
BRANCH  15  17
HETATM   17  O   UNK N   1      10.086  -3.503   7.220  0.00  0.00    -0.772 OA
HETATM   18  H   UNK N   1       9.747  -2.666   7.570  0.00  0.00     0.167 HD
ENDBRANCH  15  17
ENDBRANCH   6  15
TORSDOF 6
ENDMDL
MODEL 2
REMARK VINA RESULT:      -6.2      2.343      5.403
REMARK  6 active torsions:
REMARK  status: ('A' for Active; 'I' for Inactive)
REMARK    1  A    between atoms: C_2  and  O_3 
REMARK    2  A    between atoms: C_2  and  C_4 
REMARK    3  A    between atoms: C_4  and  O_5 
REMARK    4  A    between atoms: O_5  and  C_6 
REMARK    5  A    between atoms: C_11  and  C_12 
REMARK    6  A    between atoms: C_12  and  O_14 
ROOT
HETATM    1  C   UNK N   1      10.479  -7.066   5.041  0.00  0.00     0.109 A 
HETATM    2  C   UNK N   1      11.732  -7.058   5.680  0.00  0.00     0.043 A 
HETATM    3  C   UNK N   1      12.262  -8.235   6.204  0.00  0.00     0.046 A 
HETATM    4  C   UNK N   1      11.561  -9.438   6.104  0.00  0.00     0.136 A 
HETATM    5  F   UNK N   1      12.116 -10.560   6.628  0.00  0.00    -0.205 F 
HETATM    6  C   UNK N   1      10.301  -9.477   5.468  0.00  0.00     0.117 A 
HETATM    7  C   UNK N   1       9.769  -8.276   4.937  0.00  0.00     0.169 A 
HETATM    8  F   UNK N   1       8.562  -8.273   4.314  0.00  0.00    -0.202 F 
ENDROOT
BRANCH   1   9
HETATM    9  O   UNK N   1       9.932  -5.940   4.504  0.00  0.00    -0.338 OA
BRANCH   9  10
HETATM   10  C   UNK N   1      10.327  -4.629   4.732  0.00  0.00     0.285 C 
BRANCH  10  11
HETATM   11  C   UNK N   1       9.567  -4.009   5.870  0.00  0.00     0.164 C 
HETATM   12  O   UNK N   1       8.422  -3.620   5.698  0.00  0.00    -0.648 OA
BRANCH  11  13
HETATM   13  O   UNK N   1      10.161  -3.852   7.074  0.00  0.00    -0.775 OA
HETATM   14  H   UNK N   1      10.191  -4.577   7.715  0.00  0.00     0.167 HD
ENDBRANCH  11  13
ENDBRANCH  10  11
ENDBRANCH   9  10
ENDBRANCH   1   9
BRANCH   6  15
HETATM   15  C   UNK N   1       9.551 -10.766   5.361  0.00  0.00     0.182 C 
HETATM   16  O   UNK N   1       9.899 -11.618   4.555  0.00  0.00    -0.646 OA
BRANCH  15  17
HETATM   17  O   UNK N   1       8.483 -11.006   6.152  0.00  0.00    -0.772 OA
HETATM   18  H   UNK N   1       8.015 -11.853   6.127  0.00  0.00     0.167 HD
ENDBRANCH  15  17
ENDBRANCH   6  15
TORSDOF 6
ENDMDL
MODEL 3
REMARK VINA RESULT:      -6.1      2.786      5.755
REMARK  6 active torsions:
REMARK  status: ('A' for Active; 'I' for Inactive)
REMARK    1  A    between atoms: C_2  and  O_3 
REMARK    2  A    between atoms: C_2  and  C_4 
REMARK    3  A    between atoms: C_4  and  O_5 
REMARK    4  A    between atoms: O_5  and  C_6 
REMARK    5  A    between atoms: C_11  and  C_12 
REMARK    6  A    between atoms: C_12  and  O_14 
ROOT
HETATM    1  C   UNK N   1       9.405  -3.592   4.039  0.00  0.00     0.109 A 
HETATM    2  C   UNK N   1       9.040  -4.187   2.819  0.00  0.00     0.043 A 
HETATM    3  C   UNK N   1       9.066  -5.573   2.677  0.00  0.00     0.046 A 
HETATM    4  C   UNK N   1       9.454  -6.390   3.741  0.00  0.00     0.136 A 
HETATM    5  F   UNK N   1       9.465  -7.735   3.557  0.00  0.00    -0.205 F 
HETATM    6  C   UNK N   1       9.826  -5.821   4.977  0.00  0.00     0.117 A 
HETATM    7  C   UNK N   1       9.795  -4.411   5.114  0.00  0.00     0.169 A 
HETATM    8  F   UNK N   1      10.142  -3.825   6.290  0.00  0.00    -0.202 F 
ENDROOT
BRANCH   1   9
HETATM    9  O   UNK N   1       9.379  -2.242   4.223  0.00  0.00    -0.338 OA
BRANCH   9  10
HETATM   10  C   UNK N   1      10.223  -1.304   3.645  0.00  0.00     0.285 C 
BRANCH  10  11
HETATM   11  C   UNK N   1      11.639  -1.461   4.125  0.00  0.00     0.164 C 
HETATM   12  O   UNK N   1      12.460  -2.036   3.425  0.00  0.00    -0.648 OA
BRANCH  11  13
HETATM   13  O   UNK N   1      11.996  -0.997   5.343  0.00  0.00    -0.775 OA
HETATM   14  H   UNK N   1      12.231  -1.605   6.060  0.00  0.00     0.167 HD
ENDBRANCH  11  13
ENDBRANCH  10  11
ENDBRANCH   9  10
ENDBRANCH   1   9
BRANCH   6  15
HETATM   15  C   UNK N   1      10.241  -6.697   6.116  0.00  0.00     0.182 C 
HETATM   16  O   UNK N   1      11.345  -7.223   6.120  0.00  0.00    -0.646 OA
BRANCH  15  17
HETATM   17  O   UNK N   1       9.403  -6.918   7.152  0.00  0.00    -0.772 OA
HETATM   18  H   UNK N   1       9.572  -6.542   8.028  0.00  0.00     0.167 HD
ENDBRANCH  15  17
ENDBRANCH   6  15
TORSDOF 6
ENDMDL
MODEL 4
REMARK VINA RESULT:      -5.9      3.414      6.035
REMARK  6 active torsions:
REMARK  status: ('A' for Active; 'I' for Inactive)
REMARK    1  A    between atoms: C_2  and  O_3 
REMARK    2  A    between atoms: C_2  and  C_4 
REMARK    3  A    between atoms: C_4  and  O_5 
REMARK    4  A    between atoms: O_5  and  C_6 
REMARK    5  A    between atoms: C_11  and  C_12 
REMARK    6  A    between atoms: C_12  and  O_14 
ROOT
HETATM    1  C   UNK N   1      11.206  -4.163   2.414  0.00  0.00     0.109 A 
HETATM    2  C   UNK N   1      11.819  -5.427   2.466  0.00  0.00     0.043 A 
HETATM    3  C   UNK N   1      11.682  -6.230   3.597  0.00  0.00     0.046 A 
HETATM    4  C   UNK N   1      10.935  -5.793   4.693  0.00  0.00     0.136 A 
HETATM    5  F   UNK N   1      10.827  -6.608   5.773  0.00  0.00    -0.205 F 
HETATM    6  C   UNK N   1      10.308  -4.529   4.669  0.00  0.00     0.117 A 
HETATM    7  C   UNK N   1      10.452  -3.719   3.516  0.00  0.00     0.169 A 
HETATM    8  F   UNK N   1       9.860  -2.497   3.453  0.00  0.00    -0.202 F 
ENDROOT
BRANCH   1   9
HETATM    9  O   UNK N   1      11.305  -3.354   1.323  0.00  0.00    -0.338 OA
BRANCH   9  10
HETATM   10  C   UNK N   1      12.436  -3.126   0.551  0.00  0.00     0.285 C 
BRANCH  10  11
HETATM   11  C   UNK N   1      13.580  -2.613   1.381  0.00  0.00     0.164 C 
HETATM   12  O   UNK N   1      13.498  -1.521   1.923  0.00  0.00    -0.648 OA
BRANCH  11  13
HETATM   13  O   UNK N   1      14.711  -3.343   1.498  0.00  0.00    -0.775 OA
HETATM   14  H   UNK N   1      15.576  -2.916   1.577  0.00  0.00     0.167 HD
ENDBRANCH  11  13
ENDBRANCH  10  11
ENDBRANCH   9  10
ENDBRANCH   1   9
BRANCH   6  15
HETATM   15  C   UNK N   1       9.508  -4.062   5.844  0.00  0.00     0.182 C 
HETATM   16  O   UNK N   1       8.291  -3.968   5.764  0.00  0.00    -0.646 OA
BRANCH  15  17
HETATM   17  O   UNK N   1      10.118  -3.741   7.005  0.00  0.00    -0.772 OA
HETATM   18  H   UNK N   1       9.782  -4.057   7.856  0.00  0.00     0.167 HD
ENDBRANCH  15  17
ENDBRANCH   6  15
TORSDOF 6
ENDMDL
MODEL 5
REMARK VINA RESULT:      -5.9      3.260      5.073
REMARK  6 active torsions:
REMARK  status: ('A' for Active; 'I' for Inactive)
REMARK    1  A    between atoms: C_2  and  O_3 
REMARK    2  A    between atoms: C_2  and  C_4 
REMARK    3  A    between atoms: C_4  and  O_5 
REMARK    4  A    between atoms: O_5  and  C_6 
REMARK    5  A    between atoms: C_11  and  C_12 
REMARK    6  A    between atoms: C_12  and  O_14 
ROOT
HETATM    1  C   UNK N   1      10.310  -5.710   3.480  0.00  0.00     0.109 A 
HETATM    2  C   UNK N   1      11.709  -5.834   3.545  0.00  0.00     0.043 A 
HETATM    3  C   UNK N   1      12.496  -5.514   2.442  0.00  0.00     0.046 A 
HETATM    4  C   UNK N   1      11.910  -5.066   1.255  0.00  0.00     0.136 A 
HETATM    5  F   UNK N   1      12.716  -4.765   0.206  0.00  0.00    -0.205 F 
HETATM    6  C   UNK N   1      10.509  -4.932   1.160  0.00  0.00     0.117 A 
HETATM    7  C   UNK N   1       9.715  -5.258   2.287  0.00  0.00     0.169 A 
HETATM    8  F   UNK N   1       8.363  -5.138   2.237  0.00  0.00    -0.202 F 
ENDROOT
BRANCH   1   9
HETATM    9  O   UNK N   1       9.506  -6.000   4.541  0.00  0.00    -0.338 OA
BRANCH   9  10
HETATM   10  C   UNK N   1       9.743  -5.700   5.875  0.00  0.00     0.285 C 
BRANCH  10  11
HETATM   11  C   UNK N   1       9.394  -4.273   6.194  0.00  0.00     0.164 C 
HETATM   12  O   UNK N   1       8.486  -3.719   5.594  0.00  0.00    -0.648 OA
BRANCH  11  13
HETATM   13  O   UNK N   1      10.108  -3.593   7.118  0.00  0.00    -0.775 OA
HETATM   14  H   UNK N   1       9.815  -2.728   7.438  0.00  0.00     0.167 HD
ENDBRANCH  11  13
ENDBRANCH  10  11
ENDBRANCH   9  10
ENDBRANCH   1   9
BRANCH   6  15
HETATM   15  C   UNK N   1       9.882  -4.451  -0.110  0.00  0.00     0.182 C 
HETATM   16  O   UNK N   1       9.359  -3.347  -0.162  0.00  0.00    -0.646 OA
BRANCH  15  17
HETATM   17  O   UNK N   1       9.888  -5.229  -1.215  0.00  0.00    -0.772 OA
HETATM   18  H   UNK N   1       9.188  -5.875  -1.382  0.00  0.00     0.167 HD
ENDBRANCH  15  17
ENDBRANCH   6  15
TORSDOF 6
ENDMDL
MODEL 6
REMARK VINA RESULT:      -5.9      2.559      3.358
REMARK  6 active torsions:
REMARK  status: ('A' for Active; 'I' for Inactive)
REMARK    1  A    between atoms: C_2  and  O_3 
REMARK    2  A    between atoms: C_2  and  C_4 
REMARK    3  A    between atoms: C_4  and  O_5 
REMARK    4  A    between atoms: O_5  and  C_6 
REMARK    5  A    between atoms: C_11  and  C_12 
REMARK    6  A    between atoms: C_12  and  O_14 
ROOT
HETATM    1  C   UNK N   1      10.429  -5.259   3.518  0.00  0.00     0.109 A 
HETATM    2  C   UNK N   1      11.388  -5.559   2.534  0.00  0.00     0.043 A 
HETATM    3  C   UNK N   1      12.312  -4.596   2.135  0.00  0.00     0.046 A 
HETATM    4  C   UNK N   1      12.300  -3.320   2.703  0.00  0.00     0.136 A 
HETATM    5  F   UNK N   1      13.219  -2.414   2.283  0.00  0.00    -0.205 F 
HETATM    6  C   UNK N   1      11.350  -2.990   3.692  0.00  0.00     0.117 A 
HETATM    7  C   UNK N   1      10.415  -3.975   4.094  0.00  0.00     0.169 A 
HETATM    8  F   UNK N   1       9.487  -3.697   5.046  0.00  0.00    -0.202 F 
ENDROOT
BRANCH   1   9
HETATM    9  O   UNK N   1       9.518  -6.176   3.946  0.00  0.00    -0.338 OA
BRANCH   9  10
HETATM   10  C   UNK N   1       9.781  -7.375   4.594  0.00  0.00     0.285 C 
BRANCH  10  11
HETATM   11  C   UNK N   1      10.304  -7.152   5.985  0.00  0.00     0.164 C 
HETATM   12  O   UNK N   1      11.486  -7.342   6.230  0.00  0.00    -0.648 OA
BRANCH  11  13
HETATM   13  O   UNK N   1       9.461  -6.775   6.972  0.00  0.00    -0.775 OA
HETATM   14  H   UNK N   1       9.043  -5.901   6.965  0.00  0.00     0.167 HD
ENDBRANCH  11  13
ENDBRANCH  10  11
ENDBRANCH   9  10
ENDBRANCH   1   9
BRANCH   6  15
HETATM   15  C   UNK N   1      11.339  -1.623   4.300  0.00  0.00     0.182 C 
HETATM   16  O   UNK N   1      10.473  -0.817   3.991  0.00  0.00    -0.646 OA
BRANCH  15  17
HETATM   17  O   UNK N   1      12.283  -1.264   5.197  0.00  0.00    -0.772 OA
HETATM   18  H   UNK N   1      12.204  -0.452   5.716  0.00  0.00     0.167 HD
ENDBRANCH  15  17
ENDBRANCH   6  15
TORSDOF 6
ENDMDL
MODEL 7
REMARK VINA RESULT:      -5.9      3.513      5.081
REMARK  6 active torsions:
REMARK  status: ('A' for Active; 'I' for Inactive)
REMARK    1  A    between atoms: C_2  and  O_3 
REMARK    2  A    between atoms: C_2  and  C_4 
REMARK    3  A    between atoms: C_4  and  O_5 
REMARK    4  A    between atoms: O_5  and  C_6 
REMARK    5  A    between atoms: C_11  and  C_12 
REMARK    6  A    between atoms: C_12  and  O_14 
ROOT
HETATM    1  C   UNK N   1       9.838  -5.254   2.854  0.00  0.00     0.109 A 
HETATM    2  C   UNK N   1       9.103  -5.385   1.663  0.00  0.00     0.043 A 
HETATM    3  C   UNK N   1       9.706  -5.134   0.433  0.00  0.00     0.046 A 
HETATM    4  C   UNK N   1      11.047  -4.750   0.363  0.00  0.00     0.136 A 
HETATM    5  F   UNK N   1      11.593  -4.516  -0.858  0.00  0.00    -0.205 F 
HETATM    6  C   UNK N   1      11.810  -4.611   1.542  0.00  0.00     0.117 A 
HETATM    7  C   UNK N   1      11.190  -4.869   2.789  0.00  0.00     0.169 A 
HETATM    8  F   UNK N   1      11.892  -4.750   3.946  0.00  0.00    -0.202 F 
ENDROOT
BRANCH   1   9
HETATM    9  O   UNK N   1       9.289  -5.503   4.076  0.00  0.00    -0.338 OA
BRANCH   9  10
HETATM   10  C   UNK N   1       8.877  -4.567   5.013  0.00  0.00     0.285 C 
BRANCH  10  11
HETATM   11  C   UNK N   1       9.593  -4.740   6.324  0.00  0.00     0.164 C 
HETATM   12  O   UNK N   1       9.654  -5.844   6.843  0.00  0.00    -0.648 OA
BRANCH  11  13
HETATM   13  O   UNK N   1      10.137  -3.669   6.943  0.00  0.00    -0.775 OA
HETATM   14  H   UNK N   1      10.889  -3.770   7.545  0.00  0.00     0.167 HD
ENDBRANCH  11  13
ENDBRANCH  10  11
ENDBRANCH   9  10
ENDBRANCH   1   9
BRANCH   6  15
HETATM   15  C   UNK N   1      13.246  -4.200   1.465  0.00  0.00     0.182 C 
HETATM   16  O   UNK N   1      14.093  -4.985   1.061  0.00  0.00    -0.646 OA
BRANCH  15  17
HETATM   17  O   UNK N   1      13.625  -2.959   1.839  0.00  0.00    -0.772 OA
HETATM   18  H   UNK N   1      13.868  -2.286   1.187  0.00  0.00     0.167 HD
ENDBRANCH  15  17
ENDBRANCH   6  15
TORSDOF 6
ENDMDL
MODEL 8
REMARK VINA RESULT:      -5.7      3.614      6.725
REMARK  6 active torsions:
REMARK  status: ('A' for Active; 'I' for Inactive)
REMARK    1  A    between atoms: C_2  and  O_3 
REMARK    2  A    between atoms: C_2  and  C_4 
REMARK    3  A    between atoms: C_4  and  O_5 
REMARK    4  A    between atoms: O_5  and  C_6 
REMARK    5  A    between atoms: C_11  and  C_12 
REMARK    6  A    between atoms: C_12  and  O_14 
ROOT
HETATM    1  C   UNK N   1      11.113  -9.880   6.226  0.00  0.00     0.109 A 
HETATM    2  C   UNK N   1      11.134 -10.006   7.627  0.00  0.00     0.043 A 
HETATM    3  C   UNK N   1      11.905 -10.995   8.233  0.00  0.00     0.046 A 
HETATM    4  C   UNK N   1      12.668 -11.875   7.462  0.00  0.00     0.136 A 
HETATM    5  F   UNK N   1      13.405 -12.822   8.095  0.00  0.00    -0.205 F 
HETATM    6  C   UNK N   1      12.667 -11.772   6.054  0.00  0.00     0.117 A 
HETATM    7  C   UNK N   1      11.881 -10.763   5.446  0.00  0.00     0.169 A 
HETATM    8  F   UNK N   1      11.856 -10.630   4.094  0.00  0.00    -0.202 F 
ENDROOT
BRANCH   1   9
HETATM    9  O   UNK N   1      10.382  -8.918   5.596  0.00  0.00    -0.338 OA
BRANCH   9  10
HETATM   10  C   UNK N   1      10.820  -7.663   5.199  0.00  0.00     0.285 C 
BRANCH  10  11
HETATM   11  C   UNK N   1      10.118  -6.566   5.950  0.00  0.00     0.164 C 
HETATM   12  O   UNK N   1      10.175  -5.416   5.544  0.00  0.00    -0.648 OA
BRANCH  11  13
HETATM   13  O   UNK N   1       9.455  -6.848   7.094  0.00  0.00    -0.775 OA
HETATM   14  H   UNK N   1       9.779  -6.533   7.950  0.00  0.00     0.167 HD
ENDBRANCH  11  13
ENDBRANCH  10  11
ENDBRANCH   9  10
ENDBRANCH   1   9
BRANCH   6  15
HETATM   15  C   UNK N   1      13.485 -12.715   5.230  0.00  0.00     0.182 C 
HETATM   16  O   UNK N   1      14.706 -12.635   5.229  0.00  0.00    -0.646 OA
BRANCH  15  17
HETATM   17  O   UNK N   1      12.887 -13.664   4.478  0.00  0.00    -0.772 OA
HETATM   18  H   UNK N   1      13.282 -14.541   4.363  0.00  0.00     0.167 HD
ENDBRANCH  15  17
ENDBRANCH   6  15
TORSDOF 6
ENDMDL
MODEL 9
REMARK VINA RESULT:      -5.7      1.648      5.083
REMARK  6 active torsions:
REMARK  status: ('A' for Active; 'I' for Inactive)
REMARK    1  A    between atoms: C_2  and  O_3 
REMARK    2  A    between atoms: C_2  and  C_4 
REMARK    3  A    between atoms: C_4  and  O_5 
REMARK    4  A    between atoms: O_5  and  C_6 
REMARK    5  A    between atoms: C_11  and  C_12 
REMARK    6  A    between atoms: C_12  and  O_14 
ROOT
HETATM    1  C   UNK N   1      10.461  -7.355   5.274  0.00  0.00     0.109 A 
HETATM    2  C   UNK N   1      11.293  -8.199   4.517  0.00  0.00     0.043 A 
HETATM    3  C   UNK N   1      11.780  -9.383   5.066  0.00  0.00     0.046 A 
HETATM    4  C   UNK N   1      11.450  -9.751   6.372  0.00  0.00     0.136 A 
HETATM    5  F   UNK N   1      11.947 -10.914   6.865  0.00  0.00    -0.205 F 
HETATM    6  C   UNK N   1      10.617  -8.924   7.155  0.00  0.00     0.117 A 
HETATM    7  C   UNK N   1      10.125  -7.722   6.590  0.00  0.00     0.169 A 
HETATM    8  F   UNK N   1       9.316  -6.902   7.311  0.00  0.00    -0.202 F 
ENDROOT
BRANCH   1   9
HETATM    9  O   UNK N   1       9.953  -6.196   4.770  0.00  0.00    -0.338 OA
BRANCH   9  10
HETATM   10  C   UNK N   1      10.497  -4.925   4.889  0.00  0.00     0.285 C 
BRANCH  10  11
HETATM   11  C   UNK N   1       9.683  -4.056   5.807  0.00  0.00     0.164 C 
HETATM   12  O   UNK N   1       8.649  -3.544   5.404  0.00  0.00    -0.648 OA
BRANCH  11  13
HETATM   13  O   UNK N   1      10.112  -3.814   7.065  0.00  0.00    -0.775 OA
HETATM   14  H   UNK N   1      10.717  -4.423   7.512  0.00  0.00     0.167 HD
ENDBRANCH  11  13
ENDBRANCH  10  11
ENDBRANCH   9  10
ENDBRANCH   1   9
BRANCH   6  15
HETATM   15  C   UNK N   1      10.264  -9.319   8.554  0.00  0.00     0.182 C 
HETATM   16  O   UNK N   1      11.042  -9.102   9.472  0.00  0.00    -0.646 OA
BRANCH  15  17
HETATM   17  O   UNK N   1       9.083  -9.918   8.820  0.00  0.00    -0.772 OA
HETATM   18  H   UNK N   1       9.035 -10.851   9.076  0.00  0.00     0.167 HD
ENDBRANCH  15  17
ENDBRANCH   6  15
TORSDOF 6
ENDMDL
