MODEL 1
REMARK VINA RESULT:      -6.3      0.000      0.000
REMARK  4 active torsions:
REMARK  status: ('A' for Active; 'I' for Inactive)
REMARK    1  A    between atoms: C_2  and  O_3 
REMARK    2  A    between atoms: C_2  and  C_4 
REMARK    3  A    between atoms: C_9  and  S_10 
REMARK    4  A    between atoms: S_10  and  O_13 
ROOT
HETATM    1  C   UNK N   1      10.429  -4.614   4.951  0.00  0.00     0.095 A 
HETATM    2  C   UNK N   1      10.586  -6.017   5.049  0.00  0.00     0.134 A 
HETATM    3  F   UNK N   1       9.959  -6.727   6.022  0.00  0.00    -0.205 F 
HETATM    4  C   UNK N   1      11.409  -6.705   4.161  0.00  0.00     0.045 A 
HETATM    5  C   UNK N   1      12.085  -6.026   3.155  0.00  0.00     0.030 A 
HETATM    6  C   UNK N   1      11.943  -4.644   3.016  0.00  0.00     0.090 A 
HETATM    7  C   UNK N   1      11.118  -3.920   3.908  0.00  0.00     0.054 A 
HETATM    8 Br   UNK N   1      10.942  -2.013   3.650  0.00  0.00    -0.048 Br
ENDROOT
BRANCH   6   9
HETATM    9  S   UNK N   1      12.840  -3.814   1.692  0.00  0.00     0.131 S 
HETATM   10  O   UNK N   1      13.852  -4.725   0.980  0.00  0.00    -0.598 OA
HETATM   11  O   UNK N   1      11.903  -3.441   0.533  0.00  0.00    -0.598 OA
BRANCH   9  12
HETATM   12  O   UNK N   1      13.694  -2.371   2.059  0.00  0.00    -0.292 OA
HETATM   13  H   UNK N   1      14.571  -2.482   1.614  0.00  0.00     0.232 HD
ENDBRANCH   9  12
ENDBRANCH   6   9
BRANCH   1  14
HETATM   14  C   UNK N   1       9.564  -3.907   5.954  0.00  0.00     0.180 C 
HETATM   15  O   UNK N   1       8.419  -3.588   5.658  0.00  0.00    -0.646 OA
BRANCH  14  16
HETATM   16  O   UNK N   1      10.002  -3.657   7.203  0.00  0.00    -0.772 OA
HETATM   17  H   UNK N   1      10.341  -2.787   7.455  0.00  0.00     0.167 HD
ENDBRANCH  14  16
ENDBRANCH   1  14
TORSDOF 4
ENDMDL
MODEL 2
REMARK VINA RESULT:      -6.1      2.441      4.804
REMARK  4 active torsions:
REMARK  status: ('A' for Active; 'I' for Inactive)
REMARK    1  A    between atoms: C_2  and  O_3 
REMARK    2  A    between atoms: C_2  and  C_4 
REMARK    3  A    between atoms: C_9  and  S_10 
REMARK    4  A    between atoms: S_10  and  O_13 
ROOT
HETATM    1  C   UNK N   1      12.192  -3.570   2.402  0.00  0.00     0.095 A 
HETATM    2  C   UNK N   1      12.723  -4.855   2.140  0.00  0.00     0.134 A 
HETATM    3  F   UNK N   1      13.614  -5.054   1.135  0.00  0.00    -0.205 F 
HETATM    4  C   UNK N   1      12.326  -5.958   2.893  0.00  0.00     0.045 A 
HETATM    5  C   UNK N   1      11.406  -5.813   3.924  0.00  0.00     0.030 A 
HETATM    6  C   UNK N   1      10.873  -4.559   4.224  0.00  0.00     0.090 A 
HETATM    7  C   UNK N   1      11.254  -3.424   3.471  0.00  0.00     0.054 A 
HETATM    8 Br   UNK N   1      10.499  -1.710   3.951  0.00  0.00    -0.048 Br
ENDROOT
BRANCH   6   9
HETATM    9  S   UNK N   1       9.686  -4.427   5.574  0.00  0.00     0.131 S 
HETATM   10  O   UNK N   1       8.316  -3.893   5.128  0.00  0.00    -0.598 OA
HETATM   11  O   UNK N   1       9.306  -5.812   6.120  0.00  0.00    -0.598 OA
BRANCH   9  12
HETATM   12  O   UNK N   1      10.115  -3.504   6.956  0.00  0.00    -0.292 OA
HETATM   13  H   UNK N   1      10.327  -4.178   7.649  0.00  0.00     0.232 HD
ENDBRANCH   9  12
ENDBRANCH   6   9
BRANCH   1  14
HETATM   14  C   UNK N   1      12.617  -2.417   1.541  0.00  0.00     0.180 C 
HETATM   15  O   UNK N   1      12.015  -2.173   0.503  0.00  0.00    -0.646 OA
BRANCH  14  16
HETATM   16  O   UNK N   1      13.622  -1.601   1.911  0.00  0.00    -0.772 OA
HETATM   17  H   UNK N   1      14.523  -1.727   1.581  0.00  0.00     0.167 HD
ENDBRANCH  14  16
ENDBRANCH   1  14
TORSDOF 4
ENDMDL
MODEL 3
REMARK VINA RESULT:      -5.7      1.003      1.626
REMARK  4 active torsions:
REMARK  status: ('A' for Active; 'I' for Inactive)
REMARK    1  A    between atoms: C_2  and  O_3 
REMARK    2  A    between atoms: C_2  and  C_4 
REMARK    3  A    between atoms: C_9  and  S_10 
REMARK    4  A    between atoms: S_10  and  O_13 
ROOT
HETATM    1  C   UNK N   1       9.954  -4.615   3.983  0.00  0.00     0.095 A 
HETATM    2  C   UNK N   1      10.467  -5.855   4.432  0.00  0.00     0.134 A 
HETATM    3  F   UNK N   1       9.795  -6.604   5.343  0.00  0.00    -0.205 F 
HETATM    4  C   UNK N   1      11.692  -6.329   3.967  0.00  0.00     0.045 A 
HETATM    5  C   UNK N   1      12.428  -5.596   3.045  0.00  0.00     0.030 A 
HETATM    6  C   UNK N   1      11.947  -4.376   2.566  0.00  0.00     0.090 A 
HETATM    7  C   UNK N   1      10.709  -3.869   3.026  0.00  0.00     0.054 A 
HETATM    8 Br   UNK N   1      10.085  -2.186   2.308  0.00  0.00    -0.048 Br
ENDROOT
BRANCH   6   9
HETATM    9  S   UNK N   1      12.941  -3.468   1.369  0.00  0.00     0.131 S 
HETATM   10  O   UNK N   1      13.461  -2.125   1.906  0.00  0.00    -0.598 OA
HETATM   11  O   UNK N   1      14.256  -4.201   1.065  0.00  0.00    -0.598 OA
BRANCH   9  12
HETATM   12  O   UNK N   1      12.258  -3.118  -0.167  0.00  0.00    -0.292 OA
HETATM   13  H   UNK N   1      12.908  -2.506  -0.594  0.00  0.00     0.232 HD
ENDBRANCH   9  12
ENDBRANCH   6   9
BRANCH   1  14
HETATM   14  C   UNK N   1       8.650  -4.123   4.540  0.00  0.00     0.180 C 
HETATM   15  O   UNK N   1       7.612  -4.297   3.914  0.00  0.00    -0.646 OA
BRANCH  14  16
HETATM   16  O   UNK N   1       8.583  -3.535   5.750  0.00  0.00    -0.772 OA
HETATM   17  H   UNK N   1       8.859  -3.998   6.553  0.00  0.00     0.167 HD
ENDBRANCH  14  16
ENDBRANCH   1  14
TORSDOF 4
ENDMDL
MODEL 4
REMARK VINA RESULT:      -5.6      2.460      3.245
REMARK  4 active torsions:
REMARK  status: ('A' for Active; 'I' for Inactive)
REMARK    1  A    between atoms: C_2  and  O_3 
REMARK    2  A    between atoms: C_2  and  C_4 
REMARK    3  A    between atoms: C_9  and  S_10 
REMARK    4  A    between atoms: S_10  and  O_13 
ROOT
HETATM    1  C   UNK N   1      10.572  -6.038   4.861  0.00  0.00     0.095 A 
HETATM    2  C   UNK N   1      11.584  -6.594   4.042  0.00  0.00     0.134 A 
HETATM    3  F   UNK N   1      11.821  -7.931   4.030  0.00  0.00    -0.205 F 
HETATM    4  C   UNK N   1      12.380  -5.779   3.241  0.00  0.00     0.045 A 
HETATM    5  C   UNK N   1      12.189  -4.403   3.226  0.00  0.00     0.030 A 
HETATM    6  C   UNK N   1      11.191  -3.819   4.007  0.00  0.00     0.090 A 
HETATM    7  C   UNK N   1      10.372  -4.623   4.834  0.00  0.00     0.054 A 
HETATM    8 Br   UNK N   1       8.991  -3.758   5.874  0.00  0.00    -0.048 Br
ENDROOT
BRANCH   6   9
HETATM    9  S   UNK N   1      10.984  -2.030   3.946  0.00  0.00     0.131 S 
HETATM   10  O   UNK N   1      11.642  -1.302   5.130  0.00  0.00    -0.598 OA
HETATM   11  O   UNK N   1      11.745  -1.420   2.758  0.00  0.00    -0.598 OA
BRANCH   9  12
HETATM   12  O   UNK N   1       9.395  -1.391   3.835  0.00  0.00    -0.292 OA
HETATM   13  H   UNK N   1       9.059  -1.712   2.961  0.00  0.00     0.232 HD
ENDBRANCH   9  12
ENDBRANCH   6   9
BRANCH   1  14
HETATM   14  C   UNK N   1       9.764  -6.948   5.738  0.00  0.00     0.180 C 
HETATM   15  O   UNK N   1       9.779  -6.801   6.954  0.00  0.00    -0.646 OA
BRANCH  14  16
HETATM   16  O   UNK N   1       8.971  -7.903   5.213  0.00  0.00    -0.772 OA
HETATM   17  H   UNK N   1       8.105  -7.690   4.837  0.00  0.00     0.167 HD
ENDBRANCH  14  16
ENDBRANCH   1  14
TORSDOF 4
ENDMDL
MODEL 5
REMARK VINA RESULT:      -5.5      1.359      1.436
REMARK  4 active torsions:
REMARK  status: ('A' for Active; 'I' for Inactive)
REMARK    1  A    between atoms: C_2  and  O_3 
REMARK    2  A    between atoms: C_2  and  C_4 
REMARK    3  A    between atoms: C_9  and  S_10 
REMARK    4  A    between atoms: S_10  and  O_13 
ROOT
HETATM    1  C   UNK N   1       9.974  -4.487   4.275  0.00  0.00     0.095 A 
HETATM    2  C   UNK N   1       9.524  -5.692   3.683  0.00  0.00     0.134 A 
HETATM    3  F   UNK N   1       8.702  -6.539   4.354  0.00  0.00    -0.205 F 
HETATM    4  C   UNK N   1       9.934  -6.052   2.401  0.00  0.00     0.045 A 
HETATM    5  C   UNK N   1      10.786  -5.228   1.676  0.00  0.00     0.030 A 
HETATM    6  C   UNK N   1      11.238  -4.025   2.219  0.00  0.00     0.090 A 
HETATM    7  C   UNK N   1      10.842  -3.638   3.521  0.00  0.00     0.054 A 
HETATM    8 Br   UNK N   1      11.480  -1.948   4.209  0.00  0.00    -0.048 Br
ENDROOT
BRANCH   6   9
HETATM    9  S   UNK N   1      12.338  -2.993   1.234  0.00  0.00     0.131 S 
HETATM   10  O   UNK N   1      12.628  -3.573  -0.160  0.00  0.00    -0.598 OA
HETATM   11  O   UNK N   1      11.673  -1.656   0.871  0.00  0.00    -0.598 OA
BRANCH   9  12
HETATM   12  O   UNK N   1      13.869  -2.569   1.886  0.00  0.00    -0.292 OA
HETATM   13  H   UNK N   1      14.124  -1.744   1.403  0.00  0.00     0.232 HD
ENDBRANCH   9  12
ENDBRANCH   6   9
BRANCH   1  14
HETATM   14  C   UNK N   1       9.539  -4.157   5.673  0.00  0.00     0.180 C 
HETATM   15  O   UNK N   1       8.529  -3.491   5.859  0.00  0.00    -0.646 OA
BRANCH  14  16
HETATM   16  O   UNK N   1      10.211  -4.626   6.743  0.00  0.00    -0.772 OA
HETATM   17  H   UNK N   1       9.753  -5.062   7.475  0.00  0.00     0.167 HD
ENDBRANCH  14  16
ENDBRANCH   1  14
TORSDOF 4
ENDMDL
MODEL 6
REMARK VINA RESULT:      -5.5      3.080      5.522
REMARK  4 active torsions:
REMARK  status: ('A' for Active; 'I' for Inactive)
REMARK    1  A    between atoms: C_2  and  O_3 
REMARK    2  A    between atoms: C_2  and  C_4 
REMARK    3  A    between atoms: C_9  and  S_10 
REMARK    4  A    between atoms: S_10  and  O_13 
ROOT
HETATM    1  C   UNK N   1      12.127  -3.246   2.147  0.00  0.00     0.095 A 
HETATM    2  C   UNK N   1      11.691  -1.923   1.896  0.00  0.00     0.134 A 
HETATM    3  F   UNK N   1      12.280  -1.161   0.939  0.00  0.00    -0.205 F 
HETATM    4  C   UNK N   1      10.660  -1.359   2.643  0.00  0.00     0.045 A 
HETATM    5  C   UNK N   1      10.033  -2.090   3.644  0.00  0.00     0.030 A 
HETATM    6  C   UNK N   1      10.423  -3.403   3.911  0.00  0.00     0.090 A 
HETATM    7  C   UNK N   1      11.472  -3.998   3.171  0.00  0.00     0.054 A 
HETATM    8 Br   UNK N   1      11.950  -5.828   3.570  0.00  0.00    -0.048 Br
ENDROOT
BRANCH   6   9
HETATM    9  S   UNK N   1       9.574  -4.306   5.218  0.00  0.00     0.131 S 
HETATM   10  O   UNK N   1       8.448  -3.498   5.882  0.00  0.00    -0.598 OA
HETATM   11  O   UNK N   1       8.793  -5.503   4.653  0.00  0.00    -0.598 OA
BRANCH   9  12
HETATM   12  O   UNK N   1      10.505  -4.950   6.509  0.00  0.00    -0.292 OA
HETATM   13  H   UNK N   1      10.260  -4.395   7.292  0.00  0.00     0.232 HD
ENDBRANCH   9  12
ENDBRANCH   6   9
BRANCH   1  14
HETATM   14  C   UNK N   1      13.268  -3.801   1.346  0.00  0.00     0.180 C 
HETATM   15  O   UNK N   1      13.045  -4.529   0.387  0.00  0.00    -0.646 OA
BRANCH  14  16
HETATM   16  O   UNK N   1      14.544  -3.473   1.625  0.00  0.00    -0.772 OA
HETATM   17  H   UNK N   1      15.284  -4.014   1.316  0.00  0.00     0.167 HD
ENDBRANCH  14  16
ENDBRANCH   1  14
TORSDOF 4
ENDMDL
MODEL 7
REMARK VINA RESULT:      -5.1      2.851      5.222
REMARK  4 active torsions:
REMARK  status: ('A' for Active; 'I' for Inactive)
REMARK    1  A    between atoms: C_2  and  O_3 
REMARK    2  A    between atoms: C_2  and  C_4 
REMARK    3  A    between atoms: C_9  and  S_10 
REMARK    4  A    between atoms: S_10  and  O_13 
ROOT
HETATM    1  C   UNK N   1      11.824  -3.827   1.114  0.00  0.00     0.095 A 
HETATM    2  C   UNK N   1      12.759  -4.820   1.489  0.00  0.00     0.134 A 
HETATM    3  F   UNK N   1      13.862  -5.066   0.736  0.00  0.00    -0.205 F 
HETATM    4  C   UNK N   1      12.559  -5.591   2.632  0.00  0.00     0.045 A 
HETATM    5  C   UNK N   1      11.441  -5.391   3.431  0.00  0.00     0.030 A 
HETATM    6  C   UNK N   1      10.504  -4.409   3.103  0.00  0.00     0.090 A 
HETATM    7  C   UNK N   1      10.679  -3.617   1.945  0.00  0.00     0.054 A 
HETATM    8 Br   UNK N   1       9.361  -2.257   1.558  0.00  0.00    -0.048 Br
ENDROOT
BRANCH   6   9
HETATM    9  S   UNK N   1       9.073  -4.190   4.176  0.00  0.00     0.131 S 
HETATM   10  O   UNK N   1       9.081  -5.124   5.397  0.00  0.00    -0.598 OA
HETATM   11  O   UNK N   1       9.090  -2.810   4.853  0.00  0.00    -0.598 OA
BRANCH   9  12
HETATM   12  O   UNK N   1       7.505  -4.334   3.493  0.00  0.00    -0.292 OA
HETATM   13  H   UNK N   1       7.006  -3.559   3.854  0.00  0.00     0.232 HD
ENDBRANCH   9  12
ENDBRANCH   6   9
BRANCH   1  14
HETATM   14  C   UNK N   1      12.057  -3.046  -0.146  0.00  0.00     0.180 C 
HETATM   15  O   UNK N   1      12.692  -2.000  -0.110  0.00  0.00    -0.646 OA
BRANCH  14  16
HETATM   16  O   UNK N   1      11.626  -3.499  -1.340  0.00  0.00    -0.772 OA
HETATM   17  H   UNK N   1      11.008  -4.240  -1.406  0.00  0.00     0.167 HD
ENDBRANCH  14  16
ENDBRANCH   1  14
TORSDOF 4
ENDMDL
MODEL 8
REMARK VINA RESULT:      -5.0      2.473      2.931
REMARK  4 active torsions:
REMARK  status: ('A' for Active; 'I' for Inactive)
REMARK    1  A    between atoms: C_2  and  O_3 
REMARK    2  A    between atoms: C_2  and  C_4 
REMARK    3  A    between atoms: C_9  and  S_10 
REMARK    4  A    between atoms: S_10  and  O_13 
ROOT
HETATM    1  C   UNK N   1      10.322  -5.659   4.329  0.00  0.00     0.095 A 
HETATM    2  C   UNK N   1      11.693  -6.008   4.282  0.00  0.00     0.134 A 
HETATM    3  F   UNK N   1      12.331  -6.494   5.377  0.00  0.00    -0.205 F 
HETATM    4  C   UNK N   1      12.432  -5.838   3.113  0.00  0.00     0.045 A 
HETATM    5  C   UNK N   1      11.832  -5.331   1.967  0.00  0.00     0.030 A 
HETATM    6  C   UNK N   1      10.478  -4.992   1.969  0.00  0.00     0.090 A 
HETATM    7  C   UNK N   1       9.706  -5.148   3.144  0.00  0.00     0.054 A 
HETATM    8 Br   UNK N   1       7.831  -4.684   3.077  0.00  0.00    -0.048 Br
ENDROOT
BRANCH   6   9
HETATM    9  S   UNK N   1       9.750  -4.342   0.454  0.00  0.00     0.131 S 
HETATM   10  O   UNK N   1       8.467  -5.077   0.034  0.00  0.00    -0.598 OA
HETATM   11  O   UNK N   1       9.225  -2.912   0.657  0.00  0.00    -0.598 OA
BRANCH   9  12
HETATM   12  O   UNK N   1      10.723  -4.266  -0.957  0.00  0.00    -0.292 OA
HETATM   13  H   UNK N   1      11.098  -3.349  -0.951  0.00  0.00     0.232 HD
ENDBRANCH   9  12
ENDBRANCH   6   9
BRANCH   1  14
HETATM   14  C   UNK N   1       9.574  -5.820   5.619  0.00  0.00     0.180 C 
HETATM   15  O   UNK N   1       9.236  -4.833   6.259  0.00  0.00    -0.646 OA
BRANCH  14  16
HETATM   16  O   UNK N   1       9.214  -7.037   6.072  0.00  0.00    -0.772 OA
HETATM   17  H   UNK N   1       8.284  -7.299   6.133  0.00  0.00     0.167 HD
ENDBRANCH  14  16
ENDBRANCH   1  14
TORSDOF 4
ENDMDL
MODEL 9
REMARK VINA RESULT:      -4.9      7.049      7.785
REMARK  4 active torsions:
REMARK  status: ('A' for Active; 'I' for Inactive)
REMARK    1  A    between atoms: C_2  and  O_3 
REMARK    2  A    between atoms: C_2  and  C_4 
REMARK    3  A    between atoms: C_9  and  S_10 
REMARK    4  A    between atoms: S_10  and  O_13 
ROOT
HETATM    1  C   UNK N   1      11.403  -9.850   7.253  0.00  0.00     0.095 A 
HETATM    2  C   UNK N   1      10.708  -9.059   6.307  0.00  0.00     0.134 A 
HETATM    3  F   UNK N   1      10.167  -7.864   6.656  0.00  0.00    -0.205 F 
HETATM    4  C   UNK N   1      10.541  -9.499   4.997  0.00  0.00     0.045 A 
HETATM    5  C   UNK N   1      11.063 -10.720   4.591  0.00  0.00     0.030 A 
HETATM    6  C   UNK N   1      11.769 -11.521   5.490  0.00  0.00     0.090 A 
HETATM    7  C   UNK N   1      11.948 -11.102   6.828  0.00  0.00     0.054 A 
HETATM    8 Br   UNK N   1      12.956 -12.243   8.020  0.00  0.00    -0.048 Br
ENDROOT
BRANCH   6   9
HETATM    9  S   UNK N   1      12.428 -13.095   4.909  0.00  0.00     0.131 S 
HETATM   10  O   UNK N   1      11.785 -14.312   5.594  0.00  0.00    -0.598 OA
HETATM   11  O   UNK N   1      12.058 -13.346   3.439  0.00  0.00    -0.598 OA
BRANCH   9  12
HETATM   12  O   UNK N   1      14.122 -13.357   4.995  0.00  0.00    -0.292 OA
HETATM   13  H   UNK N   1      14.515 -12.615   4.472  0.00  0.00     0.232 HD
ENDBRANCH   9  12
ENDBRANCH   6   9
BRANCH   1  14
HETATM   14  C   UNK N   1      11.526  -9.357   8.665  0.00  0.00     0.180 C 
HETATM   15  O   UNK N   1      12.592  -8.910   9.068  0.00  0.00    -0.646 OA
BRANCH  14  16
HETATM   16  O   UNK N   1      10.465  -9.343   9.496  0.00  0.00    -0.772 OA
HETATM   17  H   UNK N   1       9.723  -9.953   9.379  0.00  0.00     0.167 HD
ENDBRANCH  14  16
ENDBRANCH   1  14
TORSDOF 4
ENDMDL
