MODEL 1
REMARK VINA RESULT:      -5.8      0.000      0.000
REMARK  4 active torsions:
REMARK  status: ('A' for Active; 'I' for Inactive)
REMARK    1  A    between atoms: O_2  and  C_3 
REMARK    2  A    between atoms: C_8  and  O_9 
REMARK    3  A    between atoms: C_11  and  C_12 
REMARK    4  A    between atoms: C_12  and  O_14 
ROOT
HETATM    1  C   UNK N   1      10.595  -5.867   4.499  0.00  0.00     0.088 A 
HETATM    2  C   UNK N   1      11.470  -6.232   3.459  0.00  0.00     0.041 A 
HETATM    3  C   UNK N   1      12.192  -5.265   2.769  0.00  0.00     0.048 A 
HETATM    4  C   UNK N   1      12.068  -3.920   3.097  0.00  0.00     0.150 A 
HETATM    5  F   UNK N   1      12.803  -3.024   2.390  0.00  0.00    -0.203 F 
HETATM    6  C   UNK N   1      11.197  -3.512   4.138  0.00  0.00     0.126 A 
HETATM    7  C   UNK N   1      10.449  -4.497   4.844  0.00  0.00     0.107 A 
ENDROOT
BRANCH   7   8
HETATM    8  C   UNK N   1       9.500  -4.090   5.934  0.00  0.00     0.181 C 
HETATM    9  O   UNK N   1       8.296  -4.038   5.722  0.00  0.00    -0.646 OA
BRANCH   8  10
HETATM   10  O   UNK N   1       9.961  -3.741   7.154  0.00  0.00    -0.772 OA
HETATM   11  H   UNK N   1       9.898  -2.829   7.473  0.00  0.00     0.167 HD
ENDBRANCH   8  10
ENDBRANCH   7   8
BRANCH   6  12
HETATM   12  O   UNK N   1      11.063  -2.204   4.498  0.00  0.00    -0.352 OA
HETATM   13  C   UNK N   1      10.499  -1.187   3.754  0.00  0.00     0.210 C 
ENDBRANCH   6  12
BRANCH   1  14
HETATM   14  O   UNK N   1       9.872  -6.807   5.169  0.00  0.00    -0.355 OA
HETATM   15  C   UNK N   1      10.387  -7.792   5.988  0.00  0.00     0.210 C 
ENDBRANCH   1  14
TORSDOF 4
ENDMDL
MODEL 2
REMARK VINA RESULT:      -5.7      1.320      3.604
REMARK  4 active torsions:
REMARK  status: ('A' for Active; 'I' for Inactive)
REMARK    1  A    between atoms: O_2  and  C_3 
REMARK    2  A    between atoms: C_8  and  O_9 
REMARK    3  A    between atoms: C_11  and  C_12 
REMARK    4  A    between atoms: C_12  and  O_14 
ROOT
HETATM    1  C   UNK N   1      10.285  -2.683   3.730  0.00  0.00     0.088 A 
HETATM    2  C   UNK N   1      11.082  -2.623   2.572  0.00  0.00     0.041 A 
HETATM    3  C   UNK N   1      11.905  -3.687   2.223  0.00  0.00     0.048 A 
HETATM    4  C   UNK N   1      11.951  -4.834   3.007  0.00  0.00     0.150 A 
HETATM    5  F   UNK N   1      12.769  -5.841   2.611  0.00  0.00    -0.203 F 
HETATM    6  C   UNK N   1      11.163  -4.933   4.182  0.00  0.00     0.126 A 
HETATM    7  C   UNK N   1      10.324  -3.843   4.549  0.00  0.00     0.107 A 
ENDROOT
BRANCH   7   8
HETATM    8  C   UNK N   1       9.499  -3.912   5.802  0.00  0.00     0.181 C 
HETATM    9  O   UNK N   1       8.280  -3.997   5.738  0.00  0.00    -0.646 OA
BRANCH   8  10
HETATM   10  O   UNK N   1      10.084  -3.846   7.017  0.00  0.00    -0.772 OA
HETATM   11  H   UNK N   1      11.048  -3.839   7.110  0.00  0.00     0.167 HD
ENDBRANCH   8  10
ENDBRANCH   7   8
BRANCH   6  12
HETATM   12  O   UNK N   1      11.171  -6.048   4.965  0.00  0.00    -0.352 OA
HETATM   13  C   UNK N   1      10.596  -7.271   4.683  0.00  0.00     0.210 C 
ENDBRANCH   6  12
BRANCH   1  14
HETATM   14  O   UNK N   1       9.489  -1.637   4.089  0.00  0.00    -0.355 OA
HETATM   15  C   UNK N   1       9.569  -0.352   3.591  0.00  0.00     0.210 C 
ENDBRANCH   1  14
TORSDOF 4
ENDMDL
MODEL 3
REMARK VINA RESULT:      -5.1      2.101      4.166
REMARK  4 active torsions:
REMARK  status: ('A' for Active; 'I' for Inactive)
REMARK    1  A    between atoms: O_2  and  C_3 
REMARK    2  A    between atoms: C_8  and  O_9 
REMARK    3  A    between atoms: C_11  and  C_12 
REMARK    4  A    between atoms: C_12  and  O_14 
ROOT
HETATM    1  C   UNK N   1      12.594  -3.013   2.309  0.00  0.00     0.088 A 
HETATM    2  C   UNK N   1      12.846  -4.278   1.747  0.00  0.00     0.041 A 
HETATM    3  C   UNK N   1      12.345  -5.430   2.342  0.00  0.00     0.048 A 
HETATM    4  C   UNK N   1      11.579  -5.353   3.500  0.00  0.00     0.150 A 
HETATM    5  F   UNK N   1      11.113  -6.512   4.030  0.00  0.00    -0.203 F 
HETATM    6  C   UNK N   1      11.304  -4.097   4.097  0.00  0.00     0.126 A 
HETATM    7  C   UNK N   1      11.821  -2.914   3.497  0.00  0.00     0.107 A 
ENDROOT
BRANCH   7   8
HETATM    8  C   UNK N   1      11.565  -1.573   4.123  0.00  0.00     0.181 C 
HETATM    9  O   UNK N   1      10.790  -0.783   3.602  0.00  0.00    -0.646 OA
BRANCH   8  10
HETATM   10  O   UNK N   1      12.211  -1.205   5.249  0.00  0.00    -0.772 OA
HETATM   11  H   UNK N   1      12.012  -1.620   6.101  0.00  0.00     0.167 HD
ENDBRANCH   8  10
ENDBRANCH   7   8
BRANCH   6  12
HETATM   12  O   UNK N   1      10.543  -3.983   5.223  0.00  0.00    -0.352 OA
HETATM   13  C   UNK N   1       9.170  -4.092   5.317  0.00  0.00     0.210 C 
ENDBRANCH   6  12
BRANCH   1  14
HETATM   14  O   UNK N   1      13.097  -1.881   1.742  0.00  0.00    -0.355 OA
HETATM   15  C   UNK N   1      13.523  -1.752   0.435  0.00  0.00     0.210 C 
ENDBRANCH   1  14
TORSDOF 4
ENDMDL
MODEL 4
REMARK VINA RESULT:      -5.0      2.040      2.972
REMARK  4 active torsions:
REMARK  status: ('A' for Active; 'I' for Inactive)
REMARK    1  A    between atoms: O_2  and  C_3 
REMARK    2  A    between atoms: C_8  and  O_9 
REMARK    3  A    between atoms: C_11  and  C_12 
REMARK    4  A    between atoms: C_12  and  O_14 
ROOT
HETATM    1  C   UNK N   1      11.679  -4.304   3.512  0.00  0.00     0.088 A 
HETATM    2  C   UNK N   1      12.050  -5.330   2.624  0.00  0.00     0.041 A 
HETATM    3  C   UNK N   1      12.850  -5.058   1.520  0.00  0.00     0.048 A 
HETATM    4  C   UNK N   1      13.304  -3.766   1.276  0.00  0.00     0.150 A 
HETATM    5  F   UNK N   1      14.085  -3.564   0.186  0.00  0.00    -0.203 F 
HETATM    6  C   UNK N   1      12.952  -2.705   2.147  0.00  0.00     0.126 A 
HETATM    7  C   UNK N   1      12.126  -2.976   3.275  0.00  0.00     0.107 A 
ENDROOT
BRANCH   7   8
HETATM    8  C   UNK N   1      11.718  -1.865   4.200  0.00  0.00     0.181 C 
HETATM    9  O   UNK N   1      10.567  -1.450   4.200  0.00  0.00    -0.646 OA
BRANCH   8  10
HETATM   10  O   UNK N   1      12.620  -1.285   5.019  0.00  0.00    -0.772 OA
HETATM   11  H   UNK N   1      13.139  -1.810   5.646  0.00  0.00     0.167 HD
ENDBRANCH   8  10
ENDBRANCH   7   8
BRANCH   6  12
HETATM   12  O   UNK N   1      13.392  -1.430   1.948  0.00  0.00    -0.352 OA
HETATM   13  C   UNK N   1      12.962  -0.538   0.986  0.00  0.00     0.210 C 
ENDBRANCH   6  12
BRANCH   1  14
HETATM   14  O   UNK N   1      10.882  -4.560   4.586  0.00  0.00    -0.355 OA
HETATM   15  C   UNK N   1       9.581  -5.019   4.536  0.00  0.00     0.210 C 
ENDBRANCH   1  14
TORSDOF 4
ENDMDL
MODEL 5
REMARK VINA RESULT:      -4.9      1.971      2.254
REMARK  4 active torsions:
REMARK  status: ('A' for Active; 'I' for Inactive)
REMARK    1  A    between atoms: O_2  and  C_3 
REMARK    2  A    between atoms: C_8  and  O_9 
REMARK    3  A    between atoms: C_11  and  C_12 
REMARK    4  A    between atoms: C_12  and  O_14 
ROOT
HETATM    1  C   UNK N   1      11.029  -5.161   4.199  0.00  0.00     0.088 A 
HETATM    2  C   UNK N   1      12.125  -5.831   3.622  0.00  0.00     0.041 A 
HETATM    3  C   UNK N   1      12.532  -5.537   2.326  0.00  0.00     0.048 A 
HETATM    4  C   UNK N   1      11.869  -4.572   1.577  0.00  0.00     0.150 A 
HETATM    5  F   UNK N   1      12.317  -4.326   0.320  0.00  0.00    -0.203 F 
HETATM    6  C   UNK N   1      10.761  -3.876   2.122  0.00  0.00     0.126 A 
HETATM    7  C   UNK N   1      10.334  -4.177   3.447  0.00  0.00     0.107 A 
ENDROOT
BRANCH   7   8
HETATM    8  C   UNK N   1       9.147  -3.473   4.039  0.00  0.00     0.181 C 
HETATM    9  O   UNK N   1       9.224  -2.297   4.366  0.00  0.00    -0.646 OA
BRANCH   8  10
HETATM   10  O   UNK N   1       7.990  -4.133   4.251  0.00  0.00    -0.772 OA
HETATM   11  H   UNK N   1       7.792  -4.961   3.789  0.00  0.00     0.167 HD
ENDBRANCH   8  10
ENDBRANCH   7   8
BRANCH   6  12
HETATM   12  O   UNK N   1      10.097  -2.911   1.423  0.00  0.00    -0.352 OA
HETATM   13  C   UNK N   1       9.237  -3.094   0.359  0.00  0.00     0.210 C 
ENDBRANCH   6  12
BRANCH   1  14
HETATM   14  O   UNK N   1      10.614  -5.456   5.462  0.00  0.00    -0.355 OA
HETATM   15  C   UNK N   1      10.026  -6.639   5.865  0.00  0.00     0.210 C 
ENDBRANCH   1  14
TORSDOF 4
ENDMDL
MODEL 6
REMARK VINA RESULT:      -4.8      2.221      2.221
REMARK  4 active torsions:
REMARK  status: ('A' for Active; 'I' for Inactive)
REMARK    1  A    between atoms: O_2  and  C_3 
REMARK    2  A    between atoms: C_8  and  O_9 
REMARK    3  A    between atoms: C_11  and  C_12 
REMARK    4  A    between atoms: C_12  and  O_14 
ROOT
HETATM    1  C   UNK N   1       9.701  -5.524   3.369  0.00  0.00     0.088 A 
HETATM    2  C   UNK N   1       9.783  -5.860   2.005  0.00  0.00     0.041 A 
HETATM    3  C   UNK N   1       9.581  -4.896   1.025  0.00  0.00     0.048 A 
HETATM    4  C   UNK N   1       9.299  -3.580   1.373  0.00  0.00     0.150 A 
HETATM    5  F   UNK N   1       9.116  -2.683   0.372  0.00  0.00    -0.203 F 
HETATM    6  C   UNK N   1       9.208  -3.202   2.736  0.00  0.00     0.126 A 
HETATM    7  C   UNK N   1       9.407  -4.187   3.746  0.00  0.00     0.107 A 
ENDROOT
BRANCH   7   8
HETATM    8  C   UNK N   1       9.291  -3.818   5.197  0.00  0.00     0.181 C 
HETATM    9  O   UNK N   1       8.241  -3.997   5.800  0.00  0.00    -0.646 OA
BRANCH   8  10
HETATM   10  O   UNK N   1      10.328  -3.254   5.849  0.00  0.00    -0.772 OA
HETATM   11  H   UNK N   1      10.231  -2.408   6.312  0.00  0.00     0.167 HD
ENDBRANCH   8  10
ENDBRANCH   7   8
BRANCH   6  12
HETATM   12  O   UNK N   1       8.950  -1.918   3.115  0.00  0.00    -0.352 OA
HETATM   13  C   UNK N   1       9.822  -0.848   3.088  0.00  0.00     0.210 C 
ENDBRANCH   6  12
BRANCH   1  14
HETATM   14  O   UNK N   1       9.882  -6.468   4.335  0.00  0.00    -0.355 OA
HETATM   15  C   UNK N   1       9.544  -7.803   4.236  0.00  0.00     0.210 C 
ENDBRANCH   1  14
TORSDOF 4
ENDMDL
MODEL 7
REMARK VINA RESULT:      -4.8      4.007      5.933
REMARK  4 active torsions:
REMARK  status: ('A' for Active; 'I' for Inactive)
REMARK    1  A    between atoms: O_2  and  C_3 
REMARK    2  A    between atoms: C_8  and  O_9 
REMARK    3  A    between atoms: C_11  and  C_12 
REMARK    4  A    between atoms: C_12  and  O_14 
ROOT
HETATM    1  C   UNK N   1      11.735 -10.930   6.753  0.00  0.00     0.088 A 
HETATM    2  C   UNK N   1      11.577 -11.312   5.408  0.00  0.00     0.041 A 
HETATM    3  C   UNK N   1      10.933 -10.475   4.505  0.00  0.00     0.048 A 
HETATM    4  C   UNK N   1      10.438  -9.241   4.912  0.00  0.00     0.150 A 
HETATM    5  F   UNK N   1       9.823  -8.466   3.983  0.00  0.00    -0.203 F 
HETATM    6  C   UNK N   1      10.577  -8.821   6.258  0.00  0.00     0.126 A 
HETATM    7  C   UNK N   1      11.229  -9.677   7.191  0.00  0.00     0.107 A 
ENDROOT
BRANCH   7   8
HETATM    8  C   UNK N   1      11.367  -9.267   8.628  0.00  0.00     0.181 C 
HETATM    9  O   UNK N   1      10.384  -9.211   9.355  0.00  0.00    -0.646 OA
BRANCH   8  10
HETATM   10  O   UNK N   1      12.570  -8.919   9.133  0.00  0.00    -0.772 OA
HETATM   11  H   UNK N   1      12.841  -9.197  10.020  0.00  0.00     0.167 HD
ENDBRANCH   8  10
ENDBRANCH   7   8
BRANCH   6  12
HETATM   12  O   UNK N   1      10.118  -7.611   6.689  0.00  0.00    -0.352 OA
HETATM   13  C   UNK N   1      10.208  -6.401   6.030  0.00  0.00     0.210 C 
ENDBRANCH   6  12
BRANCH   1  14
HETATM   14  O   UNK N   1      12.351 -11.753   7.648  0.00  0.00    -0.355 OA
HETATM   15  C   UNK N   1      13.263 -12.743   7.342  0.00  0.00     0.210 C 
ENDBRANCH   1  14
TORSDOF 4
ENDMDL
MODEL 8
REMARK VINA RESULT:      -4.7      2.439      4.125
REMARK  4 active torsions:
REMARK  status: ('A' for Active; 'I' for Inactive)
REMARK    1  A    between atoms: O_2  and  C_3 
REMARK    2  A    between atoms: C_8  and  O_9 
REMARK    3  A    between atoms: C_11  and  C_12 
REMARK    4  A    between atoms: C_12  and  O_14 
ROOT
HETATM    1  C   UNK N   1       8.970  -3.949   3.226  0.00  0.00     0.088 A 
HETATM    2  C   UNK N   1       8.501  -4.844   2.246  0.00  0.00     0.041 A 
HETATM    3  C   UNK N   1       8.711  -6.211   2.377  0.00  0.00     0.048 A 
HETATM    4  C   UNK N   1       9.384  -6.722   3.482  0.00  0.00     0.150 A 
HETATM    5  F   UNK N   1       9.553  -8.066   3.556  0.00  0.00    -0.203 F 
HETATM    6  C   UNK N   1       9.872  -5.853   4.490  0.00  0.00     0.126 A 
HETATM    7  C   UNK N   1       9.666  -4.450   4.358  0.00  0.00     0.107 A 
ENDROOT
BRANCH   7   8
HETATM    8  C   UNK N   1      10.195  -3.506   5.399  0.00  0.00     0.181 C 
HETATM    9  O   UNK N   1      10.963  -2.606   5.087  0.00  0.00    -0.646 OA
BRANCH   8  10
HETATM   10  O   UNK N   1       9.860  -3.655   6.698  0.00  0.00    -0.772 OA
HETATM   11  H   UNK N   1       9.452  -2.932   7.197  0.00  0.00     0.167 HD
ENDBRANCH   8  10
ENDBRANCH   7   8
BRANCH   6  12
HETATM   12  O   UNK N   1      10.521  -6.319   5.595  0.00  0.00    -0.352 OA
HETATM   13  C   UNK N   1      11.708  -7.022   5.631  0.00  0.00     0.210 C 
ENDBRANCH   6  12
BRANCH   1  14
HETATM   14  O   UNK N   1       8.783  -2.605   3.096  0.00  0.00    -0.355 OA
HETATM   15  C   UNK N   1       9.199  -1.830   2.032  0.00  0.00     0.210 C 
ENDBRANCH   1  14
TORSDOF 4
ENDMDL
MODEL 9
REMARK VINA RESULT:      -4.7      4.417      6.966
REMARK  4 active torsions:
REMARK  status: ('A' for Active; 'I' for Inactive)
REMARK    1  A    between atoms: O_2  and  C_3 
REMARK    2  A    between atoms: C_8  and  O_9 
REMARK    3  A    between atoms: C_11  and  C_12 
REMARK    4  A    between atoms: C_12  and  O_14 
ROOT
HETATM    1  C   UNK N   1      10.602  -8.659   6.307  0.00  0.00     0.088 A 
HETATM    2  C   UNK N   1      10.434  -9.002   4.952  0.00  0.00     0.041 A 
HETATM    3  C   UNK N   1      10.773 -10.270   4.495  0.00  0.00     0.048 A 
HETATM    4  C   UNK N   1      11.281 -11.225   5.369  0.00  0.00     0.150 A 
HETATM    5  F   UNK N   1      11.589 -12.446   4.864  0.00  0.00    -0.203 F 
HETATM    6  C   UNK N   1      11.465 -10.918   6.740  0.00  0.00     0.126 A 
HETATM    7  C   UNK N   1      11.126  -9.619   7.213  0.00  0.00     0.107 A 
ENDROOT
BRANCH   7   8
HETATM    8  C   UNK N   1      11.336  -9.259   8.656  0.00  0.00     0.181 C 
HETATM    9  O   UNK N   1      10.389  -9.223   9.431  0.00  0.00    -0.646 OA
BRANCH   8  10
HETATM   10  O   UNK N   1      12.564  -8.937   9.114  0.00  0.00    -0.772 OA
HETATM   11  H   UNK N   1      13.338  -9.477   8.898  0.00  0.00     0.167 HD
ENDBRANCH   8  10
ENDBRANCH   7   8
BRANCH   6  12
HETATM   12  O   UNK N   1      11.944 -11.835   7.628  0.00  0.00    -0.352 OA
HETATM   13  C   UNK N   1      13.185 -12.441   7.616  0.00  0.00     0.210 C 
ENDBRANCH   6  12
BRANCH   1  14
HETATM   14  O   UNK N   1      10.287  -7.413   6.759  0.00  0.00    -0.355 OA
HETATM   15  C   UNK N   1       9.801  -6.373   5.991  0.00  0.00     0.210 C 
ENDBRANCH   1  14
TORSDOF 4
ENDMDL
