MODEL 1
REMARK VINA RESULT:      -7.1      0.000      0.000
REMARK  5 active torsions:
REMARK  status: ('A' for Active; 'I' for Inactive)
REMARK    1  A    between atoms: C_2  and  O_3 
REMARK    2  A    between atoms: C_2  and  C_4 
REMARK    3  A    between atoms: C_11  and  S_12 
REMARK    4  A    between atoms: S_12  and  N_15 
REMARK    5  A    between atoms: N_15  and  C_16 
ROOT
HETATM    1  C   UNK N   1      10.457  -4.490   4.854  0.00  0.00     0.102 A 
HETATM    2  C   UNK N   1      10.550  -5.900   4.728  0.00  0.00     0.135 A 
HETATM    3  F   UNK N   1       9.852  -6.722   5.550  0.00  0.00    -0.205 F 
HETATM    4  C   UNK N   1      11.386  -6.476   3.771  0.00  0.00     0.046 A 
HETATM    5  C   UNK N   1      12.137  -5.678   2.919  0.00  0.00     0.047 A 
HETATM    6  C   UNK N   1      12.056  -4.290   3.006  0.00  0.00     0.140 A 
HETATM    7  F   UNK N   1      12.799  -3.541   2.153  0.00  0.00    -0.204 F 
HETATM    8  C   UNK N   1      11.221  -3.676   3.959  0.00  0.00     0.133 A 
ENDROOT
BRANCH   8   9
HETATM    9  S   UNK N   1      11.161  -1.861   3.965  0.00  0.00     0.246 S 
HETATM   10  O   UNK N   1      11.832  -1.273   5.216  0.00  0.00    -0.206 OA
HETATM   11  O   UNK N   1      11.971  -1.162   2.862  0.00  0.00    -0.206 OA
BRANCH   9  12
HETATM   12  N   UNK N   1       9.559  -1.117   3.947  0.00  0.00    -0.211 NA
HETATM   13  H   UNK N   1       9.359  -0.768   4.913  0.00  0.00     0.140 HD
BRANCH  12  14
HETATM   14  C   UNK N   1       9.629   0.029   3.045  0.00  0.00     0.071 A 
HETATM   15  C   UNK N   1       8.452   0.986   3.122  0.00  0.00     0.022 A 
HETATM   16  C   UNK N   1       9.755   1.308   3.844  0.00  0.00     0.022 A 
ENDBRANCH  12  14
ENDBRANCH   9  12
ENDBRANCH   8   9
BRANCH   1  17
HETATM   17  C   UNK N   1       9.568  -3.929   5.919  0.00  0.00     0.180 C 
HETATM   18  O   UNK N   1       8.426  -3.573   5.661  0.00  0.00    -0.646 OA
BRANCH  17  19
HETATM   19  O   UNK N   1      10.021  -3.785   7.180  0.00  0.00    -0.772 OA
HETATM   20  H   UNK N   1       9.697  -3.075   7.753  0.00  0.00     0.167 HD
ENDBRANCH  17  19
ENDBRANCH   1  17
TORSDOF 5
ENDMDL
MODEL 2
REMARK VINA RESULT:      -6.9      3.099      5.259
REMARK  5 active torsions:
REMARK  status: ('A' for Active; 'I' for Inactive)
REMARK    1  A    between atoms: C_2  and  O_3 
REMARK    2  A    between atoms: C_2  and  C_4 
REMARK    3  A    between atoms: C_11  and  S_12 
REMARK    4  A    between atoms: S_12  and  N_15 
REMARK    5  A    between atoms: N_15  and  C_16 
ROOT
HETATM    1  C   UNK N   1      10.761  -4.624   2.436  0.00  0.00     0.102 A 
HETATM    2  C   UNK N   1      10.522  -4.965   1.080  0.00  0.00     0.135 A 
HETATM    3  F   UNK N   1      11.546  -5.084   0.198  0.00  0.00    -0.205 F 
HETATM    4  C   UNK N   1       9.222  -5.159   0.613  0.00  0.00     0.046 A 
HETATM    5  C   UNK N   1       8.138  -5.029   1.470  0.00  0.00     0.047 A 
HETATM    6  C   UNK N   1       8.340  -4.711   2.811  0.00  0.00     0.140 A 
HETATM    7  F   UNK N   1       7.258  -4.598   3.623  0.00  0.00    -0.204 F 
HETATM    8  C   UNK N   1       9.640  -4.510   3.315  0.00  0.00     0.133 A 
ENDROOT
BRANCH   8   9
HETATM    9  S   UNK N   1       9.795  -4.136   5.085  0.00  0.00     0.246 S 
HETATM   10  O   UNK N   1      10.732  -2.943   5.336  0.00  0.00    -0.206 OA
HETATM   11  O   UNK N   1       8.518  -3.634   5.777  0.00  0.00    -0.206 OA
BRANCH   9  12
HETATM   12  N   UNK N   1      10.444  -5.415   6.116  0.00  0.00    -0.211 NA
HETATM   13  H   UNK N   1      10.055  -5.277   7.078  0.00  0.00     0.140 HD
BRANCH  12  14
HETATM   14  C   UNK N   1       9.945  -6.683   5.593  0.00  0.00     0.071 A 
HETATM   15  C   UNK N   1      10.970  -7.529   4.859  0.00  0.00     0.022 A 
HETATM   16  C   UNK N   1      10.613  -7.837   6.309  0.00  0.00     0.022 A 
ENDBRANCH  12  14
ENDBRANCH   9  12
ENDBRANCH   8   9
BRANCH   1  17
HETATM   17  C   UNK N   1      12.175  -4.397   2.872  0.00  0.00     0.180 C 
HETATM   18  O   UNK N   1      12.948  -5.336   3.008  0.00  0.00    -0.646 OA
BRANCH  17  19
HETATM   19  O   UNK N   1      12.613  -3.153   3.146  0.00  0.00    -0.772 OA
HETATM   20  H   UNK N   1      13.533  -2.898   2.986  0.00  0.00     0.167 HD
ENDBRANCH  17  19
ENDBRANCH   1  17
TORSDOF 5
ENDMDL
MODEL 3
REMARK VINA RESULT:      -6.7      3.530      6.088
REMARK  5 active torsions:
REMARK  status: ('A' for Active; 'I' for Inactive)
REMARK    1  A    between atoms: C_2  and  O_3 
REMARK    2  A    between atoms: C_2  and  C_4 
REMARK    3  A    between atoms: C_11  and  S_12 
REMARK    4  A    between atoms: S_12  and  N_15 
REMARK    5  A    between atoms: N_15  and  C_16 
ROOT
HETATM    1  C   UNK N   1      10.463  -4.444   4.959  0.00  0.00     0.102 A 
HETATM    2  C   UNK N   1      11.036  -3.480   4.090  0.00  0.00     0.135 A 
HETATM    3  F   UNK N   1      10.698  -2.169   4.180  0.00  0.00    -0.205 F 
HETATM    4  C   UNK N   1      11.941  -3.862   3.100  0.00  0.00     0.046 A 
HETATM    5  C   UNK N   1      12.304  -5.194   2.953  0.00  0.00     0.047 A 
HETATM    6  C   UNK N   1      11.772  -6.163   3.800  0.00  0.00     0.140 A 
HETATM    7  F   UNK N   1      12.154  -7.454   3.633  0.00  0.00    -0.204 F 
HETATM    8  C   UNK N   1      10.857  -5.810   4.811  0.00  0.00     0.133 A 
ENDROOT
BRANCH   8   9
HETATM    9  S   UNK N   1      10.252  -7.143   5.886  0.00  0.00     0.246 S 
HETATM   10  O   UNK N   1       9.462  -6.595   7.085  0.00  0.00    -0.206 OA
HETATM   11  O   UNK N   1       9.199  -8.076   5.266  0.00  0.00    -0.206 OA
BRANCH   9  12
HETATM   12  N   UNK N   1      11.470  -8.193   6.617  0.00  0.00    -0.211 NA
HETATM   13  H   UNK N   1      11.724  -7.786   7.547  0.00  0.00     0.140 HD
BRANCH  12  14
HETATM   14  C   UNK N   1      10.842  -9.492   6.835  0.00  0.00     0.071 A 
HETATM   15  C   UNK N   1      11.651 -10.472   7.667  0.00  0.00     0.022 A 
HETATM   16  C   UNK N   1      10.522  -9.671   8.304  0.00  0.00     0.022 A 
ENDBRANCH  12  14
ENDBRANCH   9  12
ENDBRANCH   8   9
BRANCH   1  17
HETATM   17  C   UNK N   1       9.474  -3.979   5.982  0.00  0.00     0.180 C 
HETATM   18  O   UNK N   1       8.285  -3.883   5.706  0.00  0.00    -0.646 OA
BRANCH  17  19
HETATM   19  O   UNK N   1       9.881  -3.636   7.219  0.00  0.00    -0.772 OA
HETATM   20  H   UNK N   1       9.245  -3.459   7.927  0.00  0.00     0.167 HD
ENDBRANCH  17  19
ENDBRANCH   1  17
TORSDOF 5
ENDMDL
MODEL 4
REMARK VINA RESULT:      -6.6      1.405      1.803
REMARK  5 active torsions:
REMARK  status: ('A' for Active; 'I' for Inactive)
REMARK    1  A    between atoms: C_2  and  O_3 
REMARK    2  A    between atoms: C_2  and  C_4 
REMARK    3  A    between atoms: C_11  and  S_12 
REMARK    4  A    between atoms: S_12  and  N_15 
REMARK    5  A    between atoms: N_15  and  C_16 
ROOT
HETATM    1  C   UNK N   1      10.382  -4.616   4.897  0.00  0.00     0.102 A 
HETATM    2  C   UNK N   1      10.523  -6.023   4.784  0.00  0.00     0.135 A 
HETATM    3  F   UNK N   1       9.853  -6.862   5.613  0.00  0.00    -0.205 F 
HETATM    4  C   UNK N   1      11.379  -6.579   3.833  0.00  0.00     0.046 A 
HETATM    5  C   UNK N   1      12.103  -5.764   2.974  0.00  0.00     0.047 A 
HETATM    6  C   UNK N   1      11.975  -4.379   3.049  0.00  0.00     0.140 A 
HETATM    7  F   UNK N   1      12.693  -3.612   2.190  0.00  0.00    -0.204 F 
HETATM    8  C   UNK N   1      11.119  -3.785   3.996  0.00  0.00     0.133 A 
ENDROOT
BRANCH   8   9
HETATM    9  S   UNK N   1      10.997  -1.974   3.986  0.00  0.00     0.246 S 
HETATM   10  O   UNK N   1       9.541  -1.500   4.123  0.00  0.00    -0.206 OA
HETATM   11  O   UNK N   1      11.635  -1.254   5.184  0.00  0.00    -0.206 OA
BRANCH   9  12
HETATM   12  N   UNK N   1      11.585  -1.144   2.542  0.00  0.00    -0.211 NA
HETATM   13  H   UNK N   1      12.206  -1.808   2.024  0.00  0.00     0.140 HD
BRANCH  12  14
HETATM   14  C   UNK N   1      10.420  -0.853   1.710  0.00  0.00     0.071 A 
HETATM   15  C   UNK N   1      10.718  -0.611   0.241  0.00  0.00     0.022 A 
HETATM   16  C   UNK N   1      10.208  -1.969   0.710  0.00  0.00     0.022 A 
ENDBRANCH  12  14
ENDBRANCH   9  12
ENDBRANCH   8   9
BRANCH   1  17
HETATM   17  C   UNK N   1       9.474  -4.076   5.957  0.00  0.00     0.180 C 
HETATM   18  O   UNK N   1       8.266  -4.011   5.774  0.00  0.00    -0.646 OA
BRANCH  17  19
HETATM   19  O   UNK N   1       9.977  -3.631   7.125  0.00  0.00    -0.772 OA
HETATM   20  H   UNK N   1      10.506  -4.206   7.696  0.00  0.00     0.167 HD
ENDBRANCH  17  19
ENDBRANCH   1  17
TORSDOF 5
ENDMDL
MODEL 5
REMARK VINA RESULT:      -6.5      1.360      1.601
REMARK  5 active torsions:
REMARK  status: ('A' for Active; 'I' for Inactive)
REMARK    1  A    between atoms: C_2  and  O_3 
REMARK    2  A    between atoms: C_2  and  C_4 
REMARK    3  A    between atoms: C_11  and  S_12 
REMARK    4  A    between atoms: S_12  and  N_15 
REMARK    5  A    between atoms: N_15  and  C_16 
ROOT
HETATM    1  C   UNK N   1      10.396  -4.619   4.904  0.00  0.00     0.102 A 
HETATM    2  C   UNK N   1      10.550  -6.026   4.798  0.00  0.00     0.135 A 
HETATM    3  F   UNK N   1       9.891  -6.866   5.635  0.00  0.00    -0.205 F 
HETATM    4  C   UNK N   1      11.408  -6.579   3.848  0.00  0.00     0.046 A 
HETATM    5  C   UNK N   1      12.121  -5.761   2.982  0.00  0.00     0.047 A 
HETATM    6  C   UNK N   1      11.980  -4.377   3.049  0.00  0.00     0.140 A 
HETATM    7  F   UNK N   1      12.687  -3.608   2.183  0.00  0.00    -0.204 F 
HETATM    8  C   UNK N   1      11.121  -3.787   3.996  0.00  0.00     0.133 A 
ENDROOT
BRANCH   8   9
HETATM    9  S   UNK N   1      10.980  -1.976   3.975  0.00  0.00     0.246 S 
HETATM   10  O   UNK N   1       9.518  -1.517   4.082  0.00  0.00    -0.206 OA
HETATM   11  O   UNK N   1      11.588  -1.245   5.182  0.00  0.00    -0.206 OA
BRANCH   9  12
HETATM   12  N   UNK N   1      11.588  -1.146   2.539  0.00  0.00    -0.211 NA
HETATM   13  H   UNK N   1      10.808  -1.105   1.842  0.00  0.00     0.140 HD
BRANCH  12  14
HETATM   14  C   UNK N   1      11.923   0.216   2.941  0.00  0.00     0.071 A 
HETATM   15  C   UNK N   1      12.478   1.099   1.836  0.00  0.00     0.022 A 
HETATM   16  C   UNK N   1      11.012   1.201   2.240  0.00  0.00     0.022 A 
ENDBRANCH  12  14
ENDBRANCH   9  12
ENDBRANCH   8   9
BRANCH   1  17
HETATM   17  C   UNK N   1       9.485  -4.082   5.964  0.00  0.00     0.180 C 
HETATM   18  O   UNK N   1       8.278  -4.010   5.777  0.00  0.00    -0.646 OA
BRANCH  17  19
HETATM   19  O   UNK N   1       9.985  -3.648   7.137  0.00  0.00    -0.772 OA
HETATM   20  H   UNK N   1      10.256  -2.726   7.258  0.00  0.00     0.167 HD
ENDBRANCH  17  19
ENDBRANCH   1  17
TORSDOF 5
ENDMDL
MODEL 6
REMARK VINA RESULT:      -6.4      1.507      2.031
REMARK  5 active torsions:
REMARK  status: ('A' for Active; 'I' for Inactive)
REMARK    1  A    between atoms: C_2  and  O_3 
REMARK    2  A    between atoms: C_2  and  C_4 
REMARK    3  A    between atoms: C_11  and  S_12 
REMARK    4  A    between atoms: S_12  and  N_15 
REMARK    5  A    between atoms: N_15  and  C_16 
ROOT
HETATM    1  C   UNK N   1      10.743  -4.091   4.222  0.00  0.00     0.102 A 
HETATM    2  C   UNK N   1      11.261  -5.402   4.058  0.00  0.00     0.135 A 
HETATM    3  F   UNK N   1      10.851  -6.420   4.855  0.00  0.00    -0.205 F 
HETATM    4  C   UNK N   1      12.229  -5.669   3.090  0.00  0.00     0.046 A 
HETATM    5  C   UNK N   1      12.696  -4.657   2.262  0.00  0.00     0.047 A 
HETATM    6  C   UNK N   1      12.197  -3.363   2.386  0.00  0.00     0.140 A 
HETATM    7  F   UNK N   1      12.671  -2.400   1.557  0.00  0.00    -0.204 F 
HETATM    8  C   UNK N   1      11.218  -3.060   3.353  0.00  0.00     0.133 A 
ENDROOT
BRANCH   8   9
HETATM    9  S   UNK N   1      10.606  -1.351   3.407  0.00  0.00     0.246 S 
HETATM   10  O   UNK N   1      10.312  -0.806   2.001  0.00  0.00    -0.206 OA
HETATM   11  O   UNK N   1       9.235  -1.152   4.072  0.00  0.00    -0.206 OA
BRANCH   9  12
HETATM   12  N   UNK N   1      11.680  -0.143   4.120  0.00  0.00    -0.211 NA
HETATM   13  H   UNK N   1      12.404   0.101   3.405  0.00  0.00     0.140 HD
BRANCH  12  14
HETATM   14  C   UNK N   1      10.873   1.045   4.386  0.00  0.00     0.071 A 
HETATM   15  C   UNK N   1      11.305   1.866   5.588  0.00  0.00     0.022 A 
HETATM   16  C   UNK N   1      11.705   2.292   4.181  0.00  0.00     0.022 A 
ENDBRANCH  12  14
ENDBRANCH   9  12
ENDBRANCH   8   9
BRANCH   1  17
HETATM   17  C   UNK N   1       9.730  -3.857   5.298  0.00  0.00     0.180 C 
HETATM   18  O   UNK N   1      10.074  -3.718   6.464  0.00  0.00    -0.646 OA
BRANCH  17  19
HETATM   19  O   UNK N   1       8.416  -3.818   5.002  0.00  0.00    -0.772 OA
HETATM   20  H   UNK N   1       7.803  -3.264   5.507  0.00  0.00     0.167 HD
ENDBRANCH  17  19
ENDBRANCH   1  17
TORSDOF 5
ENDMDL
MODEL 7
REMARK VINA RESULT:      -5.8      1.822      3.924
REMARK  5 active torsions:
REMARK  status: ('A' for Active; 'I' for Inactive)
REMARK    1  A    between atoms: C_2  and  O_3 
REMARK    2  A    between atoms: C_2  and  C_4 
REMARK    3  A    between atoms: C_11  and  S_12 
REMARK    4  A    between atoms: S_12  and  N_15 
REMARK    5  A    between atoms: N_15  and  C_16 
ROOT
HETATM    1  C   UNK N   1      12.760  -2.549   1.987  0.00  0.00     0.102 A 
HETATM    2  C   UNK N   1      13.487  -3.393   1.107  0.00  0.00     0.135 A 
HETATM    3  F   UNK N   1      14.267  -2.874   0.127  0.00  0.00    -0.205 F 
HETATM    4  C   UNK N   1      13.392  -4.781   1.212  0.00  0.00     0.046 A 
HETATM    5  C   UNK N   1      12.591  -5.361   2.185  0.00  0.00     0.047 A 
HETATM    6  C   UNK N   1      11.877  -4.561   3.074  0.00  0.00     0.140 A 
HETATM    7  F   UNK N   1      11.109  -5.163   4.018  0.00  0.00    -0.204 F 
HETATM    8  C   UNK N   1      11.951  -3.157   2.997  0.00  0.00     0.133 A 
ENDROOT
BRANCH   8   9
HETATM    9  S   UNK N   1      11.011  -2.207   4.227  0.00  0.00     0.246 S 
HETATM   10  O   UNK N   1      10.511  -3.098   5.374  0.00  0.00    -0.206 OA
HETATM   11  O   UNK N   1      11.812  -1.161   5.018  0.00  0.00    -0.206 OA
BRANCH   9  12
HETATM   12  N   UNK N   1       9.556  -1.385   3.656  0.00  0.00    -0.211 NA
HETATM   13  H   UNK N   1       8.818  -1.498   4.389  0.00  0.00     0.140 HD
BRANCH  12  14
HETATM   14  C   UNK N   1       9.882   0.033   3.540  0.00  0.00     0.071 A 
HETATM   15  C   UNK N   1       9.540   0.670   2.204  0.00  0.00     0.022 A 
HETATM   16  C   UNK N   1       8.612   0.846   3.401  0.00  0.00     0.022 A 
ENDBRANCH  12  14
ENDBRANCH   9  12
ENDBRANCH   8   9
BRANCH   1  17
HETATM   17  C   UNK N   1      12.875  -1.068   1.807  0.00  0.00     0.180 C 
HETATM   18  O   UNK N   1      12.405  -0.517   0.820  0.00  0.00    -0.646 OA
BRANCH  17  19
HETATM   19  O   UNK N   1      13.521  -0.317   2.721  0.00  0.00    -0.772 OA
HETATM   20  H   UNK N   1      13.678  -0.644   3.618  0.00  0.00     0.167 HD
ENDBRANCH  17  19
ENDBRANCH   1  17
TORSDOF 5
ENDMDL
MODEL 8
REMARK VINA RESULT:      -5.7      1.660      2.117
REMARK  5 active torsions:
REMARK  status: ('A' for Active; 'I' for Inactive)
REMARK    1  A    between atoms: C_2  and  O_3 
REMARK    2  A    between atoms: C_2  and  C_4 
REMARK    3  A    between atoms: C_11  and  S_12 
REMARK    4  A    between atoms: S_12  and  N_15 
REMARK    5  A    between atoms: N_15  and  C_16 
ROOT
HETATM    1  C   UNK N   1      10.855  -5.310   4.536  0.00  0.00     0.102 A 
HETATM    2  C   UNK N   1      11.791  -6.307   4.157  0.00  0.00     0.135 A 
HETATM    3  F   UNK N   1      11.972  -7.419   4.912  0.00  0.00    -0.205 F 
HETATM    4  C   UNK N   1      12.571  -6.153   3.011  0.00  0.00     0.046 A 
HETATM    5  C   UNK N   1      12.438  -5.023   2.215  0.00  0.00     0.047 A 
HETATM    6  C   UNK N   1      11.517  -4.034   2.550  0.00  0.00     0.140 A 
HETATM    7  F   UNK N   1      11.409  -2.946   1.746  0.00  0.00    -0.204 F 
HETATM    8  C   UNK N   1      10.713  -4.159   3.700  0.00  0.00     0.133 A 
ENDROOT
BRANCH   8   9
HETATM    9  S   UNK N   1       9.519  -2.831   4.026  0.00  0.00     0.246 S 
HETATM   10  O   UNK N   1       8.495  -2.693   2.889  0.00  0.00    -0.206 OA
HETATM   11  O   UNK N   1       8.576  -3.058   5.219  0.00  0.00    -0.206 OA
BRANCH   9  12
HETATM   12  N   UNK N   1      10.171  -1.202   4.218  0.00  0.00    -0.211 NA
HETATM   13  H   UNK N   1      11.212  -1.263   4.129  0.00  0.00     0.140 HD
BRANCH  12  14
HETATM   14  C   UNK N   1       9.658  -0.401   3.110  0.00  0.00     0.071 A 
HETATM   15  C   UNK N   1       9.285   1.028   3.463  0.00  0.00     0.022 A 
HETATM   16  C   UNK N   1      10.621   0.724   2.796  0.00  0.00     0.022 A 
ENDBRANCH  12  14
ENDBRANCH   9  12
ENDBRANCH   8   9
BRANCH   1  17
HETATM   17  C   UNK N   1      10.069  -5.516   5.793  0.00  0.00     0.180 C 
HETATM   18  O   UNK N   1      10.335  -4.887   6.809  0.00  0.00    -0.646 OA
BRANCH  17  19
HETATM   19  O   UNK N   1       9.067  -6.415   5.832  0.00  0.00    -0.772 OA
HETATM   20  H   UNK N   1       8.295  -6.283   6.401  0.00  0.00     0.167 HD
ENDBRANCH  17  19
ENDBRANCH   1  17
TORSDOF 5
ENDMDL
MODEL 9
REMARK VINA RESULT:      -5.6      2.807      3.699
REMARK  5 active torsions:
REMARK  status: ('A' for Active; 'I' for Inactive)
REMARK    1  A    between atoms: C_2  and  O_3 
REMARK    2  A    between atoms: C_2  and  C_4 
REMARK    3  A    between atoms: C_11  and  S_12 
REMARK    4  A    between atoms: S_12  and  N_15 
REMARK    5  A    between atoms: N_15  and  C_16 
ROOT
HETATM    1  C   UNK N   1      10.246  -3.958   4.493  0.00  0.00     0.102 A 
HETATM    2  C   UNK N   1       9.527  -4.438   5.617  0.00  0.00     0.135 A 
HETATM    3  F   UNK N   1       8.636  -3.647   6.267  0.00  0.00    -0.205 F 
HETATM    4  C   UNK N   1       9.740  -5.729   6.101  0.00  0.00     0.046 A 
HETATM    5  C   UNK N   1      10.655  -6.570   5.483  0.00  0.00     0.047 A 
HETATM    6  C   UNK N   1      11.366  -6.135   4.367  0.00  0.00     0.140 A 
HETATM    7  F   UNK N   1      12.248  -6.986   3.785  0.00  0.00    -0.204 F 
HETATM    8  C   UNK N   1      11.173  -4.838   3.853  0.00  0.00     0.133 A 
ENDROOT
BRANCH   8   9
HETATM    9  S   UNK N   1      12.122  -4.383   2.373  0.00  0.00     0.246 S 
HETATM   10  O   UNK N   1      13.207  -5.421   2.050  0.00  0.00    -0.206 OA
HETATM   11  O   UNK N   1      11.339  -4.381   1.051  0.00  0.00    -0.206 OA
BRANCH   9  12
HETATM   12  N   UNK N   1      12.998  -2.850   2.429  0.00  0.00    -0.211 NA
HETATM   13  H   UNK N   1      14.017  -3.061   2.323  0.00  0.00     0.140 HD
BRANCH  12  14
HETATM   14  C   UNK N   1      12.565  -2.066   1.275  0.00  0.00     0.071 A 
HETATM   15  C   UNK N   1      13.254  -0.723   1.110  0.00  0.00     0.022 A 
HETATM   16  C   UNK N   1      13.705  -1.926   0.289  0.00  0.00     0.022 A 
ENDBRANCH  12  14
ENDBRANCH   9  12
ENDBRANCH   8   9
BRANCH   1  17
HETATM   17  C   UNK N   1       9.999  -2.553   4.038  0.00  0.00     0.180 C 
HETATM   18  O   UNK N   1      10.734  -1.641   4.392  0.00  0.00    -0.646 OA
BRANCH  17  19
HETATM   19  O   UNK N   1       8.946  -2.267   3.248  0.00  0.00    -0.772 OA
HETATM   20  H   UNK N   1       8.241  -2.913   3.096  0.00  0.00     0.167 HD
ENDBRANCH  17  19
ENDBRANCH   1  17
TORSDOF 5
ENDMDL
