MODEL 1
REMARK VINA RESULT:      -7.7      0.000      0.000
REMARK  4 active torsions:
REMARK  status: ('A' for Active; 'I' for Inactive)
REMARK    1  A    between atoms: C_4  and  C_5 
REMARK    2  A    between atoms: C_12  and  C_13 
REMARK    3  A    between atoms: C_13  and  O_15 
REMARK    4  A    between atoms: C_16  and  O_17 
ROOT
HETATM    1  C   UNK N   1      10.660  -9.006   6.126  0.00  0.00     0.079 C 
HETATM    2  C   UNK N   1      10.620  -7.664   5.473  0.00  0.00     0.084 A 
HETATM    3  O   UNK N   1      11.125  -7.401   4.289  0.00  0.00    -0.311 OA
HETATM    4  C   UNK N   1      10.898  -6.137   3.989  0.00  0.00     0.108 A 
HETATM    5  C   UNK N   1      10.232  -5.519   5.054  0.00  0.00     0.108 A 
HETATM    6  C   UNK N   1      10.058  -6.522   5.998  0.00  0.00     0.114 A 
ENDROOT
BRANCH   4   7
HETATM    7  C   UNK N   1      11.303  -5.554   2.690  0.00  0.00     0.037 A 
HETATM    8  C   UNK N   1      12.665  -5.320   2.439  0.00  0.00     0.017 A 
HETATM    9  C   UNK N   1      13.072  -4.762   1.222  0.00  0.00     0.001 A 
HETATM   10  C   UNK N   1      12.128  -4.463   0.238  0.00  0.00     0.003 A 
HETATM   11  C   UNK N   1      10.775  -4.722   0.464  0.00  0.00     0.043 A 
HETATM   12  C   UNK N   1      10.358  -5.264   1.683  0.00  0.00     0.129 A 
HETATM   13  F   UNK N   1       9.043  -5.554   1.855  0.00  0.00    -0.205 F 
ENDBRANCH   4   7
BRANCH   5  14
HETATM   14  C   UNK N   1       9.852  -4.085   5.188  0.00  0.00     0.181 C 
HETATM   15  O   UNK N   1      10.684  -3.210   5.013  0.00  0.00    -0.646 OA
BRANCH  14  16
HETATM   16  O   UNK N   1       8.601  -3.738   5.554  0.00  0.00    -0.772 OA
HETATM   17  H   UNK N   1       7.990  -3.339   4.919  0.00  0.00     0.167 HD
ENDBRANCH  14  16
ENDBRANCH   5  14
BRANCH   6  18
HETATM   18  O   UNK N   1       9.483  -6.437   7.215  0.00  0.00    -0.357 OA
HETATM   19  H   UNK N   1       8.545  -6.251   7.338  0.00  0.00     0.218 HD
ENDBRANCH   6  18
TORSDOF 4
ENDMDL
MODEL 2
REMARK VINA RESULT:      -7.2      1.827      4.303
REMARK  4 active torsions:
REMARK  status: ('A' for Active; 'I' for Inactive)
REMARK    1  A    between atoms: C_4  and  C_5 
REMARK    2  A    between atoms: C_12  and  C_13 
REMARK    3  A    between atoms: C_13  and  O_15 
REMARK    4  A    between atoms: C_16  and  O_17 
ROOT
HETATM    1  C   UNK N   1      12.615  -2.971   2.171  0.00  0.00     0.079 C 
HETATM    2  C   UNK N   1      11.847  -3.765   3.175  0.00  0.00     0.084 A 
HETATM    3  O   UNK N   1      11.912  -5.071   3.293  0.00  0.00    -0.311 OA
HETATM    4  C   UNK N   1      11.140  -5.459   4.289  0.00  0.00     0.108 A 
HETATM    5  C   UNK N   1      10.499  -4.343   4.842  0.00  0.00     0.108 A 
HETATM    6  C   UNK N   1      10.972  -3.261   4.112  0.00  0.00     0.114 A 
ENDROOT
BRANCH   4   7
HETATM    7  C   UNK N   1      11.045  -6.877   4.705  0.00  0.00     0.037 A 
HETATM    8  C   UNK N   1      11.964  -7.378   5.641  0.00  0.00     0.017 A 
HETATM    9  C   UNK N   1      11.901  -8.717   6.044  0.00  0.00     0.001 A 
HETATM   10  C   UNK N   1      10.903  -9.554   5.539  0.00  0.00     0.003 A 
HETATM   11  C   UNK N   1       9.965  -9.056   4.633  0.00  0.00     0.043 A 
HETATM   12  C   UNK N   1      10.031  -7.725   4.213  0.00  0.00     0.129 A 
HETATM   13  F   UNK N   1       9.075  -7.255   3.372  0.00  0.00    -0.205 F 
ENDBRANCH   4   7
BRANCH   5  14
HETATM   14  C   UNK N   1       9.478  -4.316   5.925  0.00  0.00     0.181 C 
HETATM   15  O   UNK N   1       8.516  -3.570   5.845  0.00  0.00    -0.646 OA
BRANCH  14  16
HETATM   16  O   UNK N   1       9.628  -5.078   7.028  0.00  0.00    -0.772 OA
HETATM   17  H   UNK N   1       9.702  -6.041   6.962  0.00  0.00     0.167 HD
ENDBRANCH  14  16
ENDBRANCH   5  14
BRANCH   6  18
HETATM   18  O   UNK N   1      10.648  -1.957   4.240  0.00  0.00    -0.357 OA
HETATM   19  H   UNK N   1       9.758  -1.623   4.084  0.00  0.00     0.218 HD
ENDBRANCH   6  18
TORSDOF 4
ENDMDL
MODEL 3
REMARK VINA RESULT:      -7.2      2.011      4.890
REMARK  4 active torsions:
REMARK  status: ('A' for Active; 'I' for Inactive)
REMARK    1  A    between atoms: C_4  and  C_5 
REMARK    2  A    between atoms: C_12  and  C_13 
REMARK    3  A    between atoms: C_13  and  O_15 
REMARK    4  A    between atoms: C_16  and  O_17 
ROOT
HETATM    1  C   UNK N   1      12.319  -4.476   1.812  0.00  0.00     0.079 C 
HETATM    2  C   UNK N   1      11.731  -5.075   3.046  0.00  0.00     0.084 A 
HETATM    3  O   UNK N   1      11.686  -6.365   3.295  0.00  0.00    -0.311 OA
HETATM    4  C   UNK N   1      11.135  -6.563   4.476  0.00  0.00     0.108 A 
HETATM    5  C   UNK N   1      10.762  -5.331   5.027  0.00  0.00     0.108 A 
HETATM    6  C   UNK N   1      11.159  -4.386   4.091  0.00  0.00     0.114 A 
ENDROOT
BRANCH   4   7
HETATM    7  C   UNK N   1      10.995  -7.916   5.061  0.00  0.00     0.037 A 
HETATM    8  C   UNK N   1      10.019  -8.785   4.548  0.00  0.00     0.017 A 
HETATM    9  C   UNK N   1       9.861 -10.066   5.088  0.00  0.00     0.001 A 
HETATM   10  C   UNK N   1      10.695 -10.498   6.121  0.00  0.00     0.003 A 
HETATM   11  C   UNK N   1      11.691  -9.655   6.615  0.00  0.00     0.043 A 
HETATM   12  C   UNK N   1      11.845  -8.367   6.093  0.00  0.00     0.129 A 
HETATM   13  F   UNK N   1      12.855  -7.588   6.556  0.00  0.00    -0.205 F 
ENDBRANCH   4   7
BRANCH   5  14
HETATM   14  C   UNK N   1      10.033  -5.081   6.301  0.00  0.00     0.181 C 
HETATM   15  O   UNK N   1       9.401  -5.979   6.835  0.00  0.00    -0.646 OA
BRANCH  14  16
HETATM   16  O   UNK N   1      10.019  -3.851   6.854  0.00  0.00    -0.772 OA
HETATM   17  H   UNK N   1      10.505  -3.118   6.450  0.00  0.00     0.167 HD
ENDBRANCH  14  16
ENDBRANCH   5  14
BRANCH   6  18
HETATM   18  O   UNK N   1      11.010  -3.045   4.140  0.00  0.00    -0.357 OA
HETATM   19  H   UNK N   1      10.609  -2.539   3.425  0.00  0.00     0.218 HD
ENDBRANCH   6  18
TORSDOF 4
ENDMDL
MODEL 4
REMARK VINA RESULT:      -6.5      1.150      1.385
REMARK  4 active torsions:
REMARK  status: ('A' for Active; 'I' for Inactive)
REMARK    1  A    between atoms: C_4  and  C_5 
REMARK    2  A    between atoms: C_12  and  C_13 
REMARK    3  A    between atoms: C_13  and  O_15 
REMARK    4  A    between atoms: C_16  and  O_17 
ROOT
HETATM    1  C   UNK N   1      10.242  -7.613   5.872  0.00  0.00     0.079 C 
HETATM    2  C   UNK N   1      10.541  -6.406   5.046  0.00  0.00     0.084 A 
HETATM    3  O   UNK N   1      11.022  -6.445   3.825  0.00  0.00    -0.311 OA
HETATM    4  C   UNK N   1      11.144  -5.216   3.363  0.00  0.00     0.108 A 
HETATM    5  C   UNK N   1      10.749  -4.307   4.354  0.00  0.00     0.108 A 
HETATM    6  C   UNK N   1      10.360  -5.095   5.428  0.00  0.00     0.114 A 
ENDROOT
BRANCH   4   7
HETATM    7  C   UNK N   1      11.612  -4.936   1.987  0.00  0.00     0.037 A 
HETATM    8  C   UNK N   1      12.989  -4.798   1.748  0.00  0.00     0.017 A 
HETATM    9  C   UNK N   1      13.456  -4.525   0.458  0.00  0.00     0.001 A 
HETATM   10  C   UNK N   1      12.557  -4.418  -0.605  0.00  0.00     0.003 A 
HETATM   11  C   UNK N   1      11.190  -4.587  -0.384  0.00  0.00     0.043 A 
HETATM   12  C   UNK N   1      10.712  -4.844   0.904  0.00  0.00     0.129 A 
HETATM   13  F   UNK N   1       9.384  -5.055   1.081  0.00  0.00    -0.205 F 
ENDBRANCH   4   7
BRANCH   5  14
HETATM   14  C   UNK N   1      10.801  -2.820   4.304  0.00  0.00     0.181 C 
HETATM   15  O   UNK N   1      11.865  -2.236   4.434  0.00  0.00    -0.646 OA
BRANCH  14  16
HETATM   16  O   UNK N   1       9.670  -2.099   4.167  0.00  0.00    -0.772 OA
HETATM   17  H   UNK N   1       8.800  -2.512   4.267  0.00  0.00     0.167 HD
ENDBRANCH  14  16
ENDBRANCH   5  14
BRANCH   6  18
HETATM   18  O   UNK N   1       9.912  -4.701   6.638  0.00  0.00    -0.357 OA
HETATM   19  H   UNK N   1       9.578  -5.318   7.298  0.00  0.00     0.218 HD
ENDBRANCH   6  18
TORSDOF 4
ENDMDL
MODEL 5
REMARK VINA RESULT:      -6.2      2.229      4.561
REMARK  4 active torsions:
REMARK  status: ('A' for Active; 'I' for Inactive)
REMARK    1  A    between atoms: C_4  and  C_5 
REMARK    2  A    between atoms: C_12  and  C_13 
REMARK    3  A    between atoms: C_13  and  O_15 
REMARK    4  A    between atoms: C_16  and  O_17 
ROOT
HETATM    1  C   UNK N   1       9.559  -3.755   0.073  0.00  0.00     0.079 C 
HETATM    2  C   UNK N   1       9.629  -4.181   1.503  0.00  0.00     0.084 A 
HETATM    3  O   UNK N   1       9.934  -5.395   1.901  0.00  0.00    -0.311 OA
HETATM    4  C   UNK N   1       9.940  -5.435   3.218  0.00  0.00     0.108 A 
HETATM    5  C   UNK N   1       9.584  -4.178   3.722  0.00  0.00     0.108 A 
HETATM    6  C   UNK N   1       9.392  -3.383   2.600  0.00  0.00     0.114 A 
ENDROOT
BRANCH   4   7
HETATM    7  C   UNK N   1      10.303  -6.660   3.966  0.00  0.00     0.037 A 
HETATM    8  C   UNK N   1       9.413  -7.747   3.971  0.00  0.00     0.017 A 
HETATM    9  C   UNK N   1       9.729  -8.913   4.676  0.00  0.00     0.001 A 
HETATM   10  C   UNK N   1      10.946  -9.014   5.354  0.00  0.00     0.003 A 
HETATM   11  C   UNK N   1      11.852  -7.953   5.327  0.00  0.00     0.043 A 
HETATM   12  C   UNK N   1      11.537  -6.778   4.639  0.00  0.00     0.129 A 
HETATM   13  F   UNK N   1      12.458  -5.782   4.586  0.00  0.00    -0.205 F 
ENDBRANCH   4   7
BRANCH   5  14
HETATM   14  C   UNK N   1       9.380  -3.786   5.145  0.00  0.00     0.181 C 
HETATM   15  O   UNK N   1      10.283  -3.258   5.773  0.00  0.00    -0.646 OA
BRANCH  14  16
HETATM   16  O   UNK N   1       8.215  -4.054   5.770  0.00  0.00    -0.772 OA
HETATM   17  H   UNK N   1       8.202  -4.369   6.685  0.00  0.00     0.167 HD
ENDBRANCH  14  16
ENDBRANCH   5  14
BRANCH   6  18
HETATM   18  O   UNK N   1       9.020  -2.087   2.545  0.00  0.00    -0.357 OA
HETATM   19  H   UNK N   1       8.337  -1.766   1.947  0.00  0.00     0.218 HD
ENDBRANCH   6  18
TORSDOF 4
ENDMDL
MODEL 6
REMARK VINA RESULT:      -6.2      2.051      2.359
REMARK  4 active torsions:
REMARK  status: ('A' for Active; 'I' for Inactive)
REMARK    1  A    between atoms: C_4  and  C_5 
REMARK    2  A    between atoms: C_12  and  C_13 
REMARK    3  A    between atoms: C_13  and  O_15 
REMARK    4  A    between atoms: C_16  and  O_17 
ROOT
HETATM    1  C   UNK N   1      11.405  -8.779   5.724  0.00  0.00     0.079 C 
HETATM    2  C   UNK N   1      11.033  -7.627   4.850  0.00  0.00     0.084 A 
HETATM    3  O   UNK N   1      11.891  -6.764   4.356  0.00  0.00    -0.311 OA
HETATM    4  C   UNK N   1      11.251  -5.891   3.604  0.00  0.00     0.108 A 
HETATM    5  C   UNK N   1       9.879  -6.174   3.630  0.00  0.00     0.108 A 
HETATM    6  C   UNK N   1       9.761  -7.299   4.434  0.00  0.00     0.114 A 
ENDROOT
BRANCH   4   7
HETATM    7  C   UNK N   1      11.959  -4.822   2.864  0.00  0.00     0.037 A 
HETATM    8  C   UNK N   1      12.680  -5.153   1.706  0.00  0.00     0.017 A 
HETATM    9  C   UNK N   1      13.364  -4.162   0.993  0.00  0.00     0.001 A 
HETATM   10  C   UNK N   1      13.308  -2.832   1.414  0.00  0.00     0.003 A 
HETATM   11  C   UNK N   1      12.567  -2.487   2.545  0.00  0.00     0.043 A 
HETATM   12  C   UNK N   1      11.894  -3.472   3.272  0.00  0.00     0.129 A 
HETATM   13  F   UNK N   1      11.138  -3.101   4.336  0.00  0.00    -0.205 F 
ENDBRANCH   4   7
BRANCH   5  14
HETATM   14  C   UNK N   1       8.773  -5.403   2.997  0.00  0.00     0.181 C 
HETATM   15  O   UNK N   1       8.480  -5.595   1.829  0.00  0.00    -0.646 OA
BRANCH  14  16
HETATM   16  O   UNK N   1       8.118  -4.451   3.691  0.00  0.00    -0.772 OA
HETATM   17  H   UNK N   1       8.435  -3.537   3.705  0.00  0.00     0.167 HD
ENDBRANCH  14  16
ENDBRANCH   5  14
BRANCH   6  18
HETATM   18  O   UNK N   1       8.641  -7.961   4.790  0.00  0.00    -0.357 OA
HETATM   19  H   UNK N   1       7.895  -8.084   4.193  0.00  0.00     0.218 HD
ENDBRANCH   6  18
TORSDOF 4
ENDMDL
MODEL 7
REMARK VINA RESULT:      -6.1      2.876      4.715
REMARK  4 active torsions:
REMARK  status: ('A' for Active; 'I' for Inactive)
REMARK    1  A    between atoms: C_4  and  C_5 
REMARK    2  A    between atoms: C_12  and  C_13 
REMARK    3  A    between atoms: C_13  and  O_15 
REMARK    4  A    between atoms: C_16  and  O_17 
ROOT
HETATM    1  C   UNK N   1      10.977  -9.599   9.412  0.00  0.00     0.079 C 
HETATM    2  C   UNK N   1      11.011  -9.533   7.921  0.00  0.00     0.084 A 
HETATM    3  O   UNK N   1      10.787  -8.444   7.222  0.00  0.00    -0.311 OA
HETATM    4  C   UNK N   1      10.922  -8.712   5.938  0.00  0.00     0.108 A 
HETATM    5  C   UNK N   1      11.220 -10.072   5.777  0.00  0.00     0.108 A 
HETATM    6  C   UNK N   1      11.277 -10.580   7.067  0.00  0.00     0.114 A 
ENDROOT
BRANCH   4   7
HETATM    7  C   UNK N   1      10.783  -7.668   4.898  0.00  0.00     0.037 A 
HETATM    8  C   UNK N   1      11.913  -6.922   4.523  0.00  0.00     0.017 A 
HETATM    9  C   UNK N   1      11.806  -5.924   3.548  0.00  0.00     0.001 A 
HETATM   10  C   UNK N   1      10.582  -5.686   2.921  0.00  0.00     0.003 A 
HETATM   11  C   UNK N   1       9.462  -6.445   3.261  0.00  0.00     0.043 A 
HETATM   12  C   UNK N   1       9.555  -7.432   4.246  0.00  0.00     0.129 A 
HETATM   13  F   UNK N   1       8.463  -8.189   4.520  0.00  0.00    -0.205 F 
ENDBRANCH   4   7
BRANCH   5  14
HETATM   14  C   UNK N   1      11.372 -10.831   4.505  0.00  0.00     0.181 C 
HETATM   15  O   UNK N   1      10.413 -10.997   3.770  0.00  0.00    -0.646 OA
BRANCH  14  16
HETATM   16  O   UNK N   1      12.556 -11.385   4.175  0.00  0.00    -0.772 OA
HETATM   17  H   UNK N   1      13.244 -11.524   4.841  0.00  0.00     0.167 HD
ENDBRANCH  14  16
ENDBRANCH   5  14
BRANCH   6  18
HETATM   18  O   UNK N   1      11.516 -11.850   7.458  0.00  0.00    -0.357 OA
HETATM   19  H   UNK N   1      11.356 -12.159   8.356  0.00  0.00     0.218 HD
ENDBRANCH   6  18
TORSDOF 4
ENDMDL
MODEL 8
REMARK VINA RESULT:      -5.9      1.948      4.555
REMARK  4 active torsions:
REMARK  status: ('A' for Active; 'I' for Inactive)
REMARK    1  A    between atoms: C_4  and  C_5 
REMARK    2  A    between atoms: C_12  and  C_13 
REMARK    3  A    between atoms: C_13  and  O_15 
REMARK    4  A    between atoms: C_16  and  O_17 
ROOT
HETATM    1  C   UNK N   1      11.777  -3.646  -0.684  0.00  0.00     0.079 C 
HETATM    2  C   UNK N   1      11.360  -3.845   0.736  0.00  0.00     0.084 A 
HETATM    3  O   UNK N   1      11.159  -5.019   1.292  0.00  0.00    -0.311 OA
HETATM    4  C   UNK N   1      10.832  -4.853   2.558  0.00  0.00     0.108 A 
HETATM    5  C   UNK N   1      10.779  -3.484   2.848  0.00  0.00     0.108 A 
HETATM    6  C   UNK N   1      11.127  -2.853   1.662  0.00  0.00     0.114 A 
ENDROOT
BRANCH   4   7
HETATM    7  C   UNK N   1      10.596  -5.999   3.465  0.00  0.00     0.037 A 
HETATM    8  C   UNK N   1      11.674  -6.527   4.195  0.00  0.00     0.017 A 
HETATM    9  C   UNK N   1      11.479  -7.614   5.053  0.00  0.00     0.001 A 
HETATM   10  C   UNK N   1      10.204  -8.161   5.212  0.00  0.00     0.003 A 
HETATM   11  C   UNK N   1       9.120  -7.622   4.518  0.00  0.00     0.043 A 
HETATM   12  C   UNK N   1       9.309  -6.547   3.645  0.00  0.00     0.129 A 
HETATM   13  F   UNK N   1       8.229  -6.010   3.023  0.00  0.00    -0.205 F 
ENDBRANCH   4   7
BRANCH   5  14
HETATM   14  C   UNK N   1      10.370  -2.834   4.124  0.00  0.00     0.181 C 
HETATM   15  O   UNK N   1      11.211  -2.350   4.865  0.00  0.00    -0.646 OA
BRANCH  14  16
HETATM   16  O   UNK N   1       9.075  -2.815   4.499  0.00  0.00    -0.772 OA
HETATM   17  H   UNK N   1       8.464  -3.509   4.215  0.00  0.00     0.167 HD
ENDBRANCH  14  16
ENDBRANCH   5  14
BRANCH   6  18
HETATM   18  O   UNK N   1      11.209  -1.530   1.409  0.00  0.00    -0.357 OA
HETATM   19  H   UNK N   1      11.649  -1.174   0.629  0.00  0.00     0.218 HD
ENDBRANCH   6  18
TORSDOF 4
ENDMDL
MODEL 9
REMARK VINA RESULT:      -5.9      4.298      6.118
REMARK  4 active torsions:
REMARK  status: ('A' for Active; 'I' for Inactive)
REMARK    1  A    between atoms: C_4  and  C_5 
REMARK    2  A    between atoms: C_12  and  C_13 
REMARK    3  A    between atoms: C_13  and  O_15 
REMARK    4  A    between atoms: C_16  and  O_17 
ROOT
HETATM    1  C   UNK N   1      14.148 -12.944   5.543  0.00  0.00     0.079 C 
HETATM    2  C   UNK N   1      12.880 -12.168   5.689  0.00  0.00     0.084 A 
HETATM    3  O   UNK N   1      12.752 -10.896   5.386  0.00  0.00    -0.311 OA
HETATM    4  C   UNK N   1      11.506 -10.520   5.599  0.00  0.00     0.108 A 
HETATM    5  C   UNK N   1      10.775 -11.601   6.106  0.00  0.00     0.108 A 
HETATM    6  C   UNK N   1      11.678 -12.654   6.151  0.00  0.00     0.114 A 
ENDROOT
BRANCH   4   7
HETATM    7  C   UNK N   1      11.037  -9.148   5.298  0.00  0.00     0.037 A 
HETATM    8  C   UNK N   1       9.903  -8.976   4.487  0.00  0.00     0.017 A 
HETATM    9  C   UNK N   1       9.445  -7.690   4.180  0.00  0.00     0.001 A 
HETATM   10  C   UNK N   1      10.094  -6.571   4.706  0.00  0.00     0.003 A 
HETATM   11  C   UNK N   1      11.201  -6.732   5.540  0.00  0.00     0.043 A 
HETATM   12  C   UNK N   1      11.676  -8.012   5.838  0.00  0.00     0.129 A 
HETATM   13  F   UNK N   1      12.722  -8.141   6.693  0.00  0.00    -0.205 F 
ENDBRANCH   4   7
BRANCH   5  14
HETATM   14  C   UNK N   1       9.359 -11.613   6.567  0.00  0.00     0.181 C 
HETATM   15  O   UNK N   1       8.546 -12.355   6.039  0.00  0.00    -0.646 OA
BRANCH  14  16
HETATM   16  O   UNK N   1       8.947 -10.772   7.537  0.00  0.00    -0.772 OA
HETATM   17  H   UNK N   1       8.075 -10.871   7.945  0.00  0.00     0.167 HD
ENDBRANCH  14  16
ENDBRANCH   5  14
BRANCH   6  18
HETATM   18  O   UNK N   1      11.473 -13.917   6.581  0.00  0.00    -0.357 OA
HETATM   19  H   UNK N   1      11.039 -14.119   7.417  0.00  0.00     0.218 HD
ENDBRANCH   6  18
TORSDOF 4
ENDMDL
