MODEL 1
REMARK VINA RESULT:      -7.0      0.000      0.000
REMARK  3 active torsions:
REMARK  status: ('A' for Active; 'I' for Inactive)
REMARK    1  A    between atoms: C_6  and  C_7 
REMARK    2  A    between atoms: C_15  and  C_16 
REMARK    3  A    between atoms: C_16  and  O_18 
ROOT
HETATM    1  C   UNK N   1      11.372  -1.759   3.821  0.00  0.00     0.080 C 
HETATM    2  C   UNK N   1      11.484  -3.250   3.771  0.00  0.00     0.091 A 
HETATM    3  O   UNK N   1      12.239  -3.896   2.913  0.00  0.00    -0.241 OA
HETATM    4  N   UNK N   1      12.122  -5.186   3.066  0.00  0.00    -0.259 N 
ATOM      5  HN  UNK N   1      12.594  -5.903   2.515  1.00  0.00     0.195 HD
HETATM    6  C   UNK N   1      11.266  -5.404   4.084  0.00  0.00     0.084 A 
HETATM    7  C   UNK N   1      10.811  -4.174   4.551  0.00  0.00     0.098 A 
ENDROOT
BRANCH   6   8
HETATM    8  C   UNK N   1      10.953  -6.762   4.584  0.00  0.00    -0.003 A 
HETATM    9  C   UNK N   1       9.909  -7.517   4.018  0.00  0.00     0.017 A 
HETATM   10  C   UNK N   1       9.604  -8.785   4.518  0.00  0.00     0.046 A 
HETATM   11  C   UNK N   1      10.343  -9.318   5.577  0.00  0.00     0.154 A 
HETATM   12  F   UNK N   1      10.049 -10.553   6.052  0.00  0.00    -0.203 F 
HETATM   13  C   UNK N   1      11.379  -8.573   6.149  0.00  0.00     0.155 A 
HETATM   14  F   UNK N   1      12.099  -9.090   7.175  0.00  0.00    -0.203 F 
HETATM   15  C   UNK N   1      11.672  -7.292   5.667  0.00  0.00     0.059 A 
ENDBRANCH   6   8
BRANCH   7  16
HETATM   16  C   UNK N   1       9.775  -3.887   5.574  0.00  0.00     0.181 C 
HETATM   17  O   UNK N   1      10.052  -3.949   6.762  0.00  0.00    -0.646 OA
BRANCH  16  18
HETATM   18  O   UNK N   1       8.556  -3.446   5.200  0.00  0.00    -0.772 OA
HETATM   19  H   UNK N   1       8.440  -2.598   4.750  0.00  0.00     0.167 HD
ENDBRANCH  16  18
ENDBRANCH   7  16
TORSDOF 3
ENDMDL
MODEL 2
REMARK VINA RESULT:      -6.8      2.590      3.642
REMARK  3 active torsions:
REMARK  status: ('A' for Active; 'I' for Inactive)
REMARK    1  A    between atoms: C_6  and  C_7 
REMARK    2  A    between atoms: C_15  and  C_16 
REMARK    3  A    between atoms: C_16  and  O_18 
ROOT
HETATM    1  C   UNK N   1       9.408  -4.369   5.827  0.00  0.00     0.080 C 
HETATM    2  C   UNK N   1       9.722  -5.816   6.037  0.00  0.00     0.091 A 
HETATM    3  O   UNK N   1       9.558  -6.441   7.179  0.00  0.00    -0.241 OA
HETATM    4  N   UNK N   1       9.942  -7.684   7.093  0.00  0.00    -0.259 N 
ATOM      5  HN  UNK N   1       9.927  -8.372   7.846  1.00  0.00     0.195 HD
HETATM    6  C   UNK N   1      10.362  -7.898   5.830  0.00  0.00     0.084 A 
HETATM    7  C   UNK N   1      10.259  -6.705   5.121  0.00  0.00     0.098 A 
ENDROOT
BRANCH   6   8
HETATM    8  C   UNK N   1      10.804  -9.228   5.353  0.00  0.00    -0.003 A 
HETATM    9  C   UNK N   1      10.044  -9.946   4.411  0.00  0.00     0.017 A 
HETATM   10  C   UNK N   1      10.456 -11.214   3.991  0.00  0.00     0.046 A 
HETATM   11  C   UNK N   1      11.633 -11.771   4.495  0.00  0.00     0.154 A 
HETATM   12  F   UNK N   1      12.033 -12.997   4.076  0.00  0.00    -0.203 F 
HETATM   13  C   UNK N   1      12.392 -11.067   5.435  0.00  0.00     0.155 A 
HETATM   14  F   UNK N   1      13.537 -11.606   5.922  0.00  0.00    -0.203 F 
HETATM   15  C   UNK N   1      11.971  -9.808   5.876  0.00  0.00     0.059 A 
ENDBRANCH   6   8
BRANCH   7  16
HETATM   16  C   UNK N   1      10.703  -6.397   3.739  0.00  0.00     0.181 C 
HETATM   17  O   UNK N   1       9.891  -6.358   2.827  0.00  0.00    -0.646 OA
BRANCH  16  18
HETATM   18  O   UNK N   1      11.985  -6.047   3.499  0.00  0.00    -0.772 OA
HETATM   19  H   UNK N   1      12.244  -5.122   3.384  0.00  0.00     0.167 HD
ENDBRANCH  16  18
ENDBRANCH   7  16
TORSDOF 3
ENDMDL
MODEL 3
REMARK VINA RESULT:      -6.7      1.435      2.592
REMARK  3 active torsions:
REMARK  status: ('A' for Active; 'I' for Inactive)
REMARK    1  A    between atoms: C_6  and  C_7 
REMARK    2  A    between atoms: C_15  and  C_16 
REMARK    3  A    between atoms: C_16  and  O_18 
ROOT
HETATM    1  C   UNK N   1      11.958  -1.512   3.000  0.00  0.00     0.080 C 
HETATM    2  C   UNK N   1      11.434  -2.690   3.759  0.00  0.00     0.091 A 
HETATM    3  O   UNK N   1      10.782  -2.595   4.894  0.00  0.00    -0.241 OA
HETATM    4  N   UNK N   1      10.472  -3.775   5.356  0.00  0.00    -0.259 N 
ATOM      5  HN  UNK N   1       9.977  -3.969   6.226  1.00  0.00     0.195 HD
HETATM    6  C   UNK N   1      10.922  -4.692   4.477  0.00  0.00     0.084 A 
HETATM    7  C   UNK N   1      11.574  -4.030   3.440  0.00  0.00     0.098 A 
ENDROOT
BRANCH   6   8
HETATM    8  C   UNK N   1      10.680  -6.143   4.647  0.00  0.00    -0.003 A 
HETATM    9  C   UNK N   1       9.496  -6.738   4.173  0.00  0.00     0.017 A 
HETATM   10  C   UNK N   1       9.266  -8.102   4.365  0.00  0.00     0.046 A 
HETATM   11  C   UNK N   1      10.218  -8.888   5.019  0.00  0.00     0.154 A 
HETATM   12  F   UNK N   1       9.994 -10.214   5.194  0.00  0.00    -0.203 F 
HETATM   13  C   UNK N   1      11.395  -8.305   5.498  0.00  0.00     0.155 A 
HETATM   14  F   UNK N   1      12.321  -9.068   6.129  0.00  0.00    -0.203 F 
HETATM   15  C   UNK N   1      11.619  -6.934   5.328  0.00  0.00     0.059 A 
ENDBRANCH   6   8
BRANCH   7  16
HETATM   16  C   UNK N   1      12.336  -4.598   2.300  0.00  0.00     0.181 C 
HETATM   17  O   UNK N   1      11.745  -5.046   1.330  0.00  0.00    -0.646 OA
BRANCH  16  18
HETATM   18  O   UNK N   1      13.683  -4.519   2.277  0.00  0.00    -0.772 OA
HETATM   19  H   UNK N   1      14.163  -4.302   1.467  0.00  0.00     0.167 HD
ENDBRANCH  16  18
ENDBRANCH   7  16
TORSDOF 3
ENDMDL
MODEL 4
REMARK VINA RESULT:      -6.4      4.150      5.287
REMARK  3 active torsions:
REMARK  status: ('A' for Active; 'I' for Inactive)
REMARK    1  A    between atoms: C_6  and  C_7 
REMARK    2  A    between atoms: C_15  and  C_16 
REMARK    3  A    between atoms: C_16  and  O_18 
ROOT
HETATM    1  C   UNK N   1       9.695  -4.773   6.654  0.00  0.00     0.080 C 
HETATM    2  C   UNK N   1      10.289  -5.185   5.344  0.00  0.00     0.091 A 
HETATM    3  O   UNK N   1      10.563  -6.429   5.027  0.00  0.00    -0.241 OA
HETATM    4  N   UNK N   1      11.105  -6.502   3.843  0.00  0.00    -0.259 N 
ATOM      5  HN  UNK N   1      11.418  -7.352   3.376  1.00  0.00     0.195 HD
HETATM    6  C   UNK N   1      11.175  -5.251   3.345  0.00  0.00     0.084 A 
HETATM    7  C   UNK N   1      10.679  -4.366   4.298  0.00  0.00     0.098 A 
ENDROOT
BRANCH   6   8
HETATM    8  C   UNK N   1      11.673  -4.965   1.981  0.00  0.00    -0.003 A 
HETATM    9  C   UNK N   1      10.780  -4.789   0.907  0.00  0.00     0.017 A 
HETATM   10  C   UNK N   1      11.264  -4.549  -0.381  0.00  0.00     0.046 A 
HETATM   11  C   UNK N   1      12.639  -4.467  -0.610  0.00  0.00     0.154 A 
HETATM   12  F   UNK N   1      13.103  -4.224  -1.860  0.00  0.00    -0.203 F 
HETATM   13  C   UNK N   1      13.534  -4.645   0.450  0.00  0.00     0.155 A 
HETATM   14  F   UNK N   1      14.870  -4.564   0.229  0.00  0.00    -0.203 F 
HETATM   15  C   UNK N   1      13.055  -4.910   1.737  0.00  0.00     0.059 A 
ENDBRANCH   6   8
BRANCH   7  16
HETATM   16  C   UNK N   1      10.653  -2.883   4.274  0.00  0.00     0.181 C 
HETATM   17  O   UNK N   1       9.589  -2.290   4.183  0.00  0.00    -0.646 OA
BRANCH  16  18
HETATM   18  O   UNK N   1      11.789  -2.180   4.465  0.00  0.00    -0.772 OA
HETATM   19  H   UNK N   1      12.646  -2.618   4.556  0.00  0.00     0.167 HD
ENDBRANCH  16  18
ENDBRANCH   7  16
TORSDOF 3
ENDMDL
MODEL 5
REMARK VINA RESULT:      -6.3      1.593      1.859
REMARK  3 active torsions:
REMARK  status: ('A' for Active; 'I' for Inactive)
REMARK    1  A    between atoms: C_6  and  C_7 
REMARK    2  A    between atoms: C_15  and  C_16 
REMARK    3  A    between atoms: C_16  and  O_18 
ROOT
HETATM    1  C   UNK N   1      11.277  -1.444   1.398  0.00  0.00     0.080 C 
HETATM    2  C   UNK N   1      11.205  -2.907   1.700  0.00  0.00     0.091 A 
HETATM    3  O   UNK N   1      11.449  -3.847   0.817  0.00  0.00    -0.241 OA
HETATM    4  N   UNK N   1      11.281  -5.032   1.336  0.00  0.00    -0.259 N 
ATOM      5  HN  UNK N   1      11.396  -5.922   0.852  1.00  0.00     0.195 HD
HETATM    6  C   UNK N   1      10.927  -4.870   2.626  0.00  0.00     0.084 A 
HETATM    7  C   UNK N   1      10.842  -3.506   2.895  0.00  0.00     0.098 A 
ENDROOT
BRANCH   6   8
HETATM    8  C   UNK N   1      10.723  -6.012   3.545  0.00  0.00    -0.003 A 
HETATM    9  C   UNK N   1       9.533  -6.762   3.513  0.00  0.00     0.017 A 
HETATM   10  C   UNK N   1       9.340  -7.819   4.406  0.00  0.00     0.046 A 
HETATM   11  C   UNK N   1      10.335  -8.148   5.329  0.00  0.00     0.154 A 
HETATM   12  F   UNK N   1      10.147  -9.181   6.186  0.00  0.00    -0.203 F 
HETATM   13  C   UNK N   1      11.519  -7.405   5.372  0.00  0.00     0.155 A 
HETATM   14  F   UNK N   1      12.488  -7.725   6.265  0.00  0.00    -0.203 F 
HETATM   15  C   UNK N   1      11.707  -6.330   4.496  0.00  0.00     0.059 A 
ENDBRANCH   6   8
BRANCH   7  16
HETATM   16  C   UNK N   1      10.380  -2.822   4.127  0.00  0.00     0.181 C 
HETATM   17  O   UNK N   1       9.207  -2.889   4.462  0.00  0.00    -0.646 OA
BRANCH  16  18
HETATM   18  O   UNK N   1      11.269  -2.220   4.945  0.00  0.00    -0.772 OA
HETATM   19  H   UNK N   1      12.222  -2.335   4.828  0.00  0.00     0.167 HD
ENDBRANCH  16  18
ENDBRANCH   7  16
TORSDOF 3
ENDMDL
MODEL 6
REMARK VINA RESULT:      -6.1      4.289      6.671
REMARK  3 active torsions:
REMARK  status: ('A' for Active; 'I' for Inactive)
REMARK    1  A    between atoms: C_6  and  C_7 
REMARK    2  A    between atoms: C_15  and  C_16 
REMARK    3  A    between atoms: C_16  and  O_18 
ROOT
HETATM    1  C   UNK N   1      11.303  -6.605   4.608  0.00  0.00     0.080 C 
HETATM    2  C   UNK N   1      11.456  -5.195   4.133  0.00  0.00     0.091 A 
HETATM    3  O   UNK N   1      12.378  -4.807   3.283  0.00  0.00    -0.241 OA
HETATM    4  N   UNK N   1      12.308  -3.522   3.069  0.00  0.00    -0.259 N 
ATOM      5  HN  UNK N   1      12.920  -2.979   2.461  1.00  0.00     0.195 HD
HETATM    6  C   UNK N   1      11.280  -3.040   3.796  0.00  0.00     0.084 A 
HETATM    7  C   UNK N   1      10.718  -4.089   4.519  0.00  0.00     0.098 A 
ENDROOT
BRANCH   6   8
HETATM    8  C   UNK N   1      10.862  -1.621   3.739  0.00  0.00    -0.003 A 
HETATM    9  C   UNK N   1      11.653  -0.611   4.318  0.00  0.00     0.017 A 
HETATM   10  C   UNK N   1      11.233   0.721   4.284  0.00  0.00     0.046 A 
HETATM   11  C   UNK N   1      10.029   1.061   3.663  0.00  0.00     0.154 A 
HETATM   12  F   UNK N   1       9.631   2.356   3.624  0.00  0.00    -0.203 F 
HETATM   13  C   UNK N   1       9.234   0.063   3.090  0.00  0.00     0.155 A 
HETATM   14  F   UNK N   1       8.067   0.393   2.484  0.00  0.00    -0.203 F 
HETATM   15  C   UNK N   1       9.639  -1.275   3.142  0.00  0.00     0.059 A 
ENDBRANCH   6   8
BRANCH   7  16
HETATM   16  C   UNK N   1       9.646  -4.049   5.545  0.00  0.00     0.181 C 
HETATM   17  O   UNK N   1       9.933  -3.941   6.727  0.00  0.00    -0.646 OA
BRANCH  16  18
HETATM   18  O   UNK N   1       8.350  -4.018   5.172  0.00  0.00    -0.772 OA
HETATM   19  H   UNK N   1       7.822  -4.826   5.108  0.00  0.00     0.167 HD
ENDBRANCH  16  18
ENDBRANCH   7  16
TORSDOF 3
ENDMDL
MODEL 7
REMARK VINA RESULT:      -6.1      3.935      5.990
REMARK  3 active torsions:
REMARK  status: ('A' for Active; 'I' for Inactive)
REMARK    1  A    between atoms: C_6  and  C_7 
REMARK    2  A    between atoms: C_15  and  C_16 
REMARK    3  A    between atoms: C_16  and  O_18 
ROOT
HETATM    1  C   UNK N   1      10.075  -7.163   6.023  0.00  0.00     0.080 C 
HETATM    2  C   UNK N   1      10.572  -6.224   4.970  0.00  0.00     0.091 A 
HETATM    3  O   UNK N   1      11.352  -6.586   3.978  0.00  0.00    -0.241 OA
HETATM    4  N   UNK N   1      11.663  -5.565   3.229  0.00  0.00    -0.259 N 
ATOM      5  HN  UNK N   1      12.264  -5.584   2.406  1.00  0.00     0.195 HD
HETATM    6  C   UNK N   1      11.046  -4.480   3.737  0.00  0.00     0.084 A 
HETATM    7  C   UNK N   1      10.349  -4.860   4.881  0.00  0.00     0.098 A 
ENDROOT
BRANCH   6   8
HETATM    8  C   UNK N   1      11.118  -3.149   3.092  0.00  0.00    -0.003 A 
HETATM    9  C   UNK N   1       9.986  -2.580   2.481  0.00  0.00     0.017 A 
HETATM   10  C   UNK N   1      10.074  -1.336   1.850  0.00  0.00     0.046 A 
HETATM   11  C   UNK N   1      11.287  -0.643   1.834  0.00  0.00     0.154 A 
HETATM   12  F   UNK N   1      11.365   0.568   1.229  0.00  0.00    -0.203 F 
HETATM   13  C   UNK N   1      12.418  -1.203   2.435  0.00  0.00     0.155 A 
HETATM   14  F   UNK N   1      13.595  -0.529   2.422  0.00  0.00    -0.203 F 
HETATM   15  C   UNK N   1      12.340  -2.459   3.047  0.00  0.00     0.059 A 
ENDBRANCH   6   8
BRANCH   7  16
HETATM   16  C   UNK N   1       9.614  -4.014   5.853  0.00  0.00     0.181 C 
HETATM   17  O   UNK N   1       8.479  -3.637   5.603  0.00  0.00    -0.646 OA
BRANCH  16  18
HETATM   18  O   UNK N   1      10.147  -3.752   7.065  0.00  0.00    -0.772 OA
HETATM   19  H   UNK N   1      11.024  -3.353   7.156  0.00  0.00     0.167 HD
ENDBRANCH  16  18
ENDBRANCH   7  16
TORSDOF 3
ENDMDL
MODEL 8
REMARK VINA RESULT:      -6.1      4.322      6.667
REMARK  3 active torsions:
REMARK  status: ('A' for Active; 'I' for Inactive)
REMARK    1  A    between atoms: C_6  and  C_7 
REMARK    2  A    between atoms: C_15  and  C_16 
REMARK    3  A    between atoms: C_16  and  O_18 
ROOT
HETATM    1  C   UNK N   1      11.257  -6.463   4.694  0.00  0.00     0.080 C 
HETATM    2  C   UNK N   1      11.381  -5.062   4.184  0.00  0.00     0.091 A 
HETATM    3  O   UNK N   1      12.291  -4.678   3.319  0.00  0.00    -0.241 OA
HETATM    4  N   UNK N   1      12.196  -3.401   3.075  0.00  0.00    -0.259 N 
ATOM      5  HN  UNK N   1      12.794  -2.861   2.450  1.00  0.00     0.195 HD
HETATM    6  C   UNK N   1      11.164  -2.920   3.796  0.00  0.00     0.084 A 
HETATM    7  C   UNK N   1      10.625  -3.961   4.548  0.00  0.00     0.098 A 
ENDROOT
BRANCH   6   8
HETATM    8  C   UNK N   1      10.719  -1.510   3.708  0.00  0.00    -0.003 A 
HETATM    9  C   UNK N   1       9.567  -1.160   2.980  0.00  0.00     0.017 A 
HETATM   10  C   UNK N   1       9.175   0.177   2.879  0.00  0.00     0.046 A 
HETATM   11  C   UNK N   1       9.918   1.175   3.514  0.00  0.00     0.154 A 
HETATM   12  F   UNK N   1       9.527   2.470   3.421  0.00  0.00    -0.203 F 
HETATM   13  C   UNK N   1      11.067   0.837   4.235  0.00  0.00     0.155 A 
HETATM   14  F   UNK N   1      11.787   1.805   4.854  0.00  0.00    -0.203 F 
HETATM   15  C   UNK N   1      11.477  -0.498   4.319  0.00  0.00     0.059 A 
ENDBRANCH   6   8
BRANCH   7  16
HETATM   16  C   UNK N   1       9.559  -3.916   5.579  0.00  0.00     0.181 C 
HETATM   17  O   UNK N   1       8.387  -4.035   5.256  0.00  0.00    -0.646 OA
BRANCH  16  18
HETATM   18  O   UNK N   1       9.883  -3.858   6.888  0.00  0.00    -0.772 OA
HETATM   19  H   UNK N   1      10.233  -3.051   7.288  0.00  0.00     0.167 HD
ENDBRANCH  16  18
ENDBRANCH   7  16
TORSDOF 3
ENDMDL
MODEL 9
REMARK VINA RESULT:      -6.1      4.591      6.013
REMARK  3 active torsions:
REMARK  status: ('A' for Active; 'I' for Inactive)
REMARK    1  A    between atoms: C_6  and  C_7 
REMARK    2  A    between atoms: C_15  and  C_16 
REMARK    3  A    between atoms: C_16  and  O_18 
ROOT
HETATM    1  C   UNK N   1       9.643  -7.904   4.568  0.00  0.00     0.080 C 
HETATM    2  C   UNK N   1      10.344  -9.219   4.698  0.00  0.00     0.091 A 
HETATM    3  O   UNK N   1      10.093 -10.259   3.938  0.00  0.00    -0.241 OA
HETATM    4  N   UNK N   1      10.820 -11.283   4.288  0.00  0.00    -0.259 N 
ATOM      5  HN  UNK N   1      10.801 -12.208   3.862  1.00  0.00     0.195 HD
HETATM    6  C   UNK N   1      11.603 -10.898   5.316  0.00  0.00     0.084 A 
HETATM    7  C   UNK N   1      11.307  -9.574   5.629  0.00  0.00     0.098 A 
ENDROOT
BRANCH   6   8
HETATM    8  C   UNK N   1      12.615 -11.793   5.924  0.00  0.00    -0.003 A 
HETATM    9  C   UNK N   1      12.450 -12.286   7.231  0.00  0.00     0.017 A 
HETATM   10  C   UNK N   1      13.426 -13.105   7.805  0.00  0.00     0.046 A 
HETATM   11  C   UNK N   1      14.567 -13.450   7.077  0.00  0.00     0.154 A 
HETATM   12  F   UNK N   1      15.507 -14.253   7.635  0.00  0.00    -0.203 F 
HETATM   13  C   UNK N   1      14.742 -12.960   5.779  0.00  0.00     0.155 A 
HETATM   14  F   UNK N   1      15.848 -13.297   5.071  0.00  0.00    -0.203 F 
HETATM   15  C   UNK N   1      13.778 -12.120   5.210  0.00  0.00     0.059 A 
ENDBRANCH   6   8
BRANCH   7  16
HETATM   16  C   UNK N   1      11.810  -8.742   6.749  0.00  0.00     0.181 C 
HETATM   17  O   UNK N   1      11.562  -9.053   7.904  0.00  0.00    -0.646 OA
BRANCH  16  18
HETATM   18  O   UNK N   1      12.638  -7.704   6.506  0.00  0.00    -0.772 OA
HETATM   19  H   UNK N   1      13.195  -7.675   5.715  0.00  0.00     0.167 HD
ENDBRANCH  16  18
ENDBRANCH   7  16
TORSDOF 3
ENDMDL
