MODEL 1
REMARK VINA RESULT:      -6.7      0.000      0.000
REMARK  3 active torsions:
REMARK  status: ('A' for Active; 'I' for Inactive)
REMARK    1  A    between atoms: C_2  and  C_3 
REMARK    2  A    between atoms: C_12  and  C_13 
REMARK    3  A    between atoms: C_13  and  O_15 
ROOT
HETATM    1  C   UNK N   1      10.144  -6.833   4.494  0.00  0.00     0.014 C 
HETATM    2  C   UNK N   1       9.666  -6.726   5.951  0.00  0.00     0.180 C 
HETATM    3  O   UNK N   1      10.437  -7.527   6.778  0.00  0.00    -0.349 OA
HETATM    4  C   UNK N   1      10.824  -8.789   6.439  0.00  0.00     0.095 A 
HETATM    5  C   UNK N   1      10.662  -9.231   5.105  0.00  0.00    -0.023 A 
HETATM    6  C   UNK N   1      11.050 -10.526   4.747  0.00  0.00     0.013 A 
HETATM    7  C   UNK N   1      11.610 -11.377   5.695  0.00  0.00     0.044 A 
HETATM    8  C   UNK N   1      11.776 -10.957   7.017  0.00  0.00     0.136 A 
HETATM    9  F   UNK N   1      12.322 -11.825   7.906  0.00  0.00    -0.205 F 
HETATM   10  C   UNK N   1      11.385  -9.657   7.411  0.00  0.00     0.110 A 
HETATM   11  C   UNK N   1      10.041  -8.317   4.075  0.00  0.00     0.048 C 
ENDROOT
BRANCH  10  12
HETATM   12  C   UNK N   1      11.550  -9.229   8.835  0.00  0.00     0.182 C 
HETATM   13  O   UNK N   1      12.646  -8.885   9.257  0.00  0.00    -0.646 OA
BRANCH  12  14
HETATM   14  O   UNK N   1      10.486  -9.200   9.667  0.00  0.00    -0.772 OA
HETATM   15  H   UNK N   1       9.583  -9.114   9.330  0.00  0.00     0.167 HD
ENDBRANCH  12  14
ENDBRANCH  10  12
BRANCH   1  16
HETATM   16  C   UNK N   1      11.576  -6.261   4.346  0.00  0.00     0.002 C 
HETATM   17  C   UNK N   1      11.847  -5.697   2.949  0.00  0.00     0.005 C 
ENDBRANCH   1  16
TORSDOF 3
ENDMDL
MODEL 2
REMARK VINA RESULT:      -6.4      5.757      7.820
REMARK  3 active torsions:
REMARK  status: ('A' for Active; 'I' for Inactive)
REMARK    1  A    between atoms: C_2  and  C_3 
REMARK    2  A    between atoms: C_12  and  C_13 
REMARK    3  A    between atoms: C_13  and  O_15 
ROOT
HETATM    1  C   UNK N   1      11.033  -5.833   3.101  0.00  0.00     0.014 C 
HETATM    2  C   UNK N   1      11.128  -5.126   4.462  0.00  0.00     0.180 C 
HETATM    3  O   UNK N   1      11.229  -3.755   4.294  0.00  0.00    -0.349 OA
HETATM    4  C   UNK N   1      12.015  -3.178   3.342  0.00  0.00     0.095 A 
HETATM    5  C   UNK N   1      12.564  -3.980   2.315  0.00  0.00    -0.023 A 
HETATM    6  C   UNK N   1      13.378  -3.401   1.336  0.00  0.00     0.013 A 
HETATM    7  C   UNK N   1      13.636  -2.034   1.359  0.00  0.00     0.044 A 
HETATM    8  C   UNK N   1      13.103  -1.227   2.366  0.00  0.00     0.136 A 
HETATM    9  F   UNK N   1      13.388   0.099   2.349  0.00  0.00    -0.205 F 
HETATM   10  C   UNK N   1      12.284  -1.786   3.375  0.00  0.00     0.110 A 
HETATM   11  C   UNK N   1      12.300  -5.468   2.293  0.00  0.00     0.048 C 
ENDROOT
BRANCH  10  12
HETATM   12  C   UNK N   1      11.738  -0.912   4.459  0.00  0.00     0.182 C 
HETATM   13  O   UNK N   1      10.786  -0.173   4.241  0.00  0.00    -0.646 OA
BRANCH  12  14
HETATM   14  O   UNK N   1      12.276  -0.942   5.698  0.00  0.00    -0.772 OA
HETATM   15  H   UNK N   1      13.229  -0.846   5.837  0.00  0.00     0.167 HD
ENDBRANCH  12  14
ENDBRANCH  10  12
BRANCH   1  16
HETATM   16  C   UNK N   1       9.721  -5.445   2.375  0.00  0.00     0.002 C 
HETATM   17  C   UNK N   1       8.475  -5.698   3.228  0.00  0.00     0.005 C 
ENDBRANCH   1  16
TORSDOF 3
ENDMDL
MODEL 3
REMARK VINA RESULT:      -6.3      3.113      5.253
REMARK  3 active torsions:
REMARK  status: ('A' for Active; 'I' for Inactive)
REMARK    1  A    between atoms: C_2  and  C_3 
REMARK    2  A    between atoms: C_12  and  C_13 
REMARK    3  A    between atoms: C_13  and  O_15 
ROOT
HETATM    1  C   UNK N   1      11.663  -9.029   6.284  0.00  0.00     0.014 C 
HETATM    2  C   UNK N   1      12.399  -7.693   6.475  0.00  0.00     0.180 C 
HETATM    3  O   UNK N   1      11.521  -6.629   6.346  0.00  0.00    -0.349 OA
HETATM    4  C   UNK N   1      10.561  -6.571   5.381  0.00  0.00     0.095 A 
HETATM    5  C   UNK N   1      10.260  -7.730   4.628  0.00  0.00    -0.023 A 
HETATM    6  C   UNK N   1       9.281  -7.681   3.632  0.00  0.00     0.013 A 
HETATM    7  C   UNK N   1       8.588  -6.499   3.387  0.00  0.00     0.044 A 
HETATM    8  C   UNK N   1       8.873  -5.345   4.120  0.00  0.00     0.136 A 
HETATM    9  F   UNK N   1       8.175  -4.215   3.841  0.00  0.00    -0.205 F 
HETATM   10  C   UNK N   1       9.865  -5.361   5.128  0.00  0.00     0.110 A 
HETATM   11  C   UNK N   1      11.019  -9.013   4.879  0.00  0.00     0.048 C 
ENDROOT
BRANCH  10  12
HETATM   12  C   UNK N   1      10.173  -4.111   5.889  0.00  0.00     0.182 C 
HETATM   13  O   UNK N   1      10.495  -3.088   5.299  0.00  0.00    -0.646 OA
BRANCH  12  14
HETATM   14  O   UNK N   1      10.079  -4.091   7.237  0.00  0.00    -0.772 OA
HETATM   15  H   UNK N   1       9.300  -3.731   7.684  0.00  0.00     0.167 HD
ENDBRANCH  12  14
ENDBRANCH  10  12
BRANCH   1  16
HETATM   16  C   UNK N   1      10.631  -9.250   7.418  0.00  0.00     0.002 C 
HETATM   17  C   UNK N   1      11.238  -9.938   8.645  0.00  0.00     0.005 C 
ENDBRANCH   1  16
TORSDOF 3
ENDMDL
MODEL 4
REMARK VINA RESULT:      -6.3      5.391      7.061
REMARK  3 active torsions:
REMARK  status: ('A' for Active; 'I' for Inactive)
REMARK    1  A    between atoms: C_2  and  C_3 
REMARK    2  A    between atoms: C_12  and  C_13 
REMARK    3  A    between atoms: C_13  and  O_15 
ROOT
HETATM    1  C   UNK N   1       9.246  -5.534   4.399  0.00  0.00     0.014 C 
HETATM    2  C   UNK N   1       9.871  -4.535   5.386  0.00  0.00     0.180 C 
HETATM    3  O   UNK N   1      10.557  -3.542   4.707  0.00  0.00    -0.349 OA
HETATM    4  C   UNK N   1      11.356  -3.792   3.632  0.00  0.00     0.095 A 
HETATM    5  C   UNK N   1      11.305  -5.061   3.009  0.00  0.00    -0.023 A 
HETATM    6  C   UNK N   1      12.124  -5.332   1.909  0.00  0.00     0.013 A 
HETATM    7  C   UNK N   1      12.978  -4.351   1.412  0.00  0.00     0.044 A 
HETATM    8  C   UNK N   1      13.041  -3.093   2.015  0.00  0.00     0.136 A 
HETATM    9  F   UNK N   1      13.893  -2.172   1.499  0.00  0.00    -0.205 F 
HETATM   10  C   UNK N   1      12.232  -2.793   3.136  0.00  0.00     0.110 A 
HETATM   11  C   UNK N   1      10.392  -6.135   3.552  0.00  0.00     0.048 C 
ENDROOT
BRANCH  10  12
HETATM   12  C   UNK N   1      12.327  -1.448   3.783  0.00  0.00     0.182 C 
HETATM   13  O   UNK N   1      12.087  -0.432   3.143  0.00  0.00    -0.646 OA
BRANCH  12  14
HETATM   14  O   UNK N   1      12.659  -1.339   5.088  0.00  0.00    -0.772 OA
HETATM   15  H   UNK N   1      13.572  -1.173   5.365  0.00  0.00     0.167 HD
ENDBRANCH  12  14
ENDBRANCH  10  12
BRANCH   1  16
HETATM   16  C   UNK N   1       8.159  -4.842   3.539  0.00  0.00     0.002 C 
HETATM   17  C   UNK N   1       8.123  -5.362   2.099  0.00  0.00     0.005 C 
ENDBRANCH   1  16
TORSDOF 3
ENDMDL
MODEL 5
REMARK VINA RESULT:      -6.2      4.161      5.770
REMARK  3 active torsions:
REMARK  status: ('A' for Active; 'I' for Inactive)
REMARK    1  A    between atoms: C_2  and  C_3 
REMARK    2  A    between atoms: C_12  and  C_13 
REMARK    3  A    between atoms: C_13  and  O_15 
ROOT
HETATM    1  C   UNK N   1      10.991  -1.897   1.584  0.00  0.00     0.014 C 
HETATM    2  C   UNK N   1       9.731  -1.812   2.459  0.00  0.00     0.180 C 
HETATM    3  O   UNK N   1       9.894  -2.548   3.622  0.00  0.00    -0.349 OA
HETATM    4  C   UNK N   1      10.473  -3.781   3.647  0.00  0.00     0.095 A 
HETATM    5  C   UNK N   1      11.168  -4.246   2.505  0.00  0.00    -0.023 A 
HETATM    6  C   UNK N   1      11.761  -5.511   2.516  0.00  0.00     0.013 A 
HETATM    7  C   UNK N   1      11.686  -6.311   3.653  0.00  0.00     0.044 A 
HETATM    8  C   UNK N   1      11.004  -5.868   4.788  0.00  0.00     0.136 A 
HETATM    9  F   UNK N   1      10.952  -6.686   5.870  0.00  0.00    -0.205 F 
HETATM   10  C   UNK N   1      10.385  -4.597   4.804  0.00  0.00     0.110 A 
HETATM   11  C   UNK N   1      11.240  -3.389   1.263  0.00  0.00     0.048 C 
ENDROOT
BRANCH  10  12
HETATM   12  C   UNK N   1       9.640  -4.146   6.020  0.00  0.00     0.182 C 
HETATM   13  O   UNK N   1      10.203  -4.085   7.106  0.00  0.00    -0.646 OA
BRANCH  12  14
HETATM   14  O   UNK N   1       8.343  -3.781   5.931  0.00  0.00    -0.772 OA
HETATM   15  H   UNK N   1       8.040  -3.148   5.264  0.00  0.00     0.167 HD
ENDBRANCH  12  14
ENDBRANCH  10  12
BRANCH   1  16
HETATM   16  C   UNK N   1      12.193  -1.223   2.292  0.00  0.00     0.002 C 
HETATM   17  C   UNK N   1      13.521  -1.471   1.571  0.00  0.00     0.005 C 
ENDBRANCH   1  16
TORSDOF 3
ENDMDL
MODEL 6
REMARK VINA RESULT:      -5.9      4.468      5.924
REMARK  3 active torsions:
REMARK  status: ('A' for Active; 'I' for Inactive)
REMARK    1  A    between atoms: C_2  and  C_3 
REMARK    2  A    between atoms: C_12  and  C_13 
REMARK    3  A    between atoms: C_13  and  O_15 
ROOT
HETATM    1  C   UNK N   1      11.279  -1.781   1.833  0.00  0.00     0.014 C 
HETATM    2  C   UNK N   1      10.384  -1.376   3.014  0.00  0.00     0.180 C 
HETATM    3  O   UNK N   1      10.245  -2.427   3.905  0.00  0.00    -0.349 OA
HETATM    4  C   UNK N   1      10.046  -3.716   3.509  0.00  0.00     0.095 A 
HETATM    5  C   UNK N   1      10.234  -4.062   2.150  0.00  0.00    -0.023 A 
HETATM    6  C   UNK N   1      10.027  -5.379   1.730  0.00  0.00     0.013 A 
HETATM    7  C   UNK N   1       9.653  -6.357   2.647  0.00  0.00     0.044 A 
HETATM    8  C   UNK N   1       9.463  -6.033   3.993  0.00  0.00     0.136 A 
HETATM    9  F   UNK N   1       9.093  -7.019   4.848  0.00  0.00    -0.205 F 
HETATM   10  C   UNK N   1       9.655  -4.707   4.445  0.00  0.00     0.110 A 
HETATM   11  C   UNK N   1      10.625  -3.002   1.147  0.00  0.00     0.048 C 
ENDROOT
BRANCH  10  12
HETATM   12  C   UNK N   1       9.427  -4.372   5.885  0.00  0.00     0.182 C 
HETATM   13  O   UNK N   1      10.158  -4.831   6.753  0.00  0.00    -0.646 OA
BRANCH  12  14
HETATM   14  O   UNK N   1       8.423  -3.541   6.243  0.00  0.00    -0.772 OA
HETATM   15  H   UNK N   1       7.800  -3.192   5.590  0.00  0.00     0.167 HD
ENDBRANCH  12  14
ENDBRANCH  10  12
BRANCH   1  16
HETATM   16  C   UNK N   1      12.724  -2.062   2.314  0.00  0.00     0.002 C 
HETATM   17  C   UNK N   1      13.699  -2.298   1.157  0.00  0.00     0.005 C 
ENDBRANCH   1  16
TORSDOF 3
ENDMDL
MODEL 7
REMARK VINA RESULT:      -5.9      4.984      6.412
REMARK  3 active torsions:
REMARK  status: ('A' for Active; 'I' for Inactive)
REMARK    1  A    between atoms: C_2  and  C_3 
REMARK    2  A    between atoms: C_12  and  C_13 
REMARK    3  A    between atoms: C_13  and  O_15 
ROOT
HETATM    1  C   UNK N   1      10.920  -3.400  -0.278  0.00  0.00     0.014 C 
HETATM    2  C   UNK N   1       9.461  -3.555   0.177  0.00  0.00     0.180 C 
HETATM    3  O   UNK N   1       9.383  -3.605   1.560  0.00  0.00    -0.349 OA
HETATM    4  C   UNK N   1      10.256  -4.315   2.328  0.00  0.00     0.095 A 
HETATM    5  C   UNK N   1      11.439  -4.826   1.745  0.00  0.00    -0.023 A 
HETATM    6  C   UNK N   1      12.339  -5.561   2.522  0.00  0.00     0.013 A 
HETATM    7  C   UNK N   1      12.084  -5.780   3.872  0.00  0.00     0.044 A 
HETATM    8  C   UNK N   1      10.920  -5.284   4.464  0.00  0.00     0.136 A 
HETATM    9  F   UNK N   1      10.712  -5.529   5.782  0.00  0.00    -0.205 F 
HETATM   10  C   UNK N   1       9.987  -4.545   3.702  0.00  0.00     0.110 A 
HETATM   11  C   UNK N   1      11.715  -4.604   0.276  0.00  0.00     0.048 C 
ENDROOT
BRANCH  10  12
HETATM   12  C   UNK N   1       8.734  -4.039   4.345  0.00  0.00     0.182 C 
HETATM   13  O   UNK N   1       8.792  -3.323   5.337  0.00  0.00    -0.646 OA
BRANCH  12  14
HETATM   14  O   UNK N   1       7.526  -4.349   3.828  0.00  0.00    -0.772 OA
HETATM   15  H   UNK N   1       7.328  -4.212   2.890  0.00  0.00     0.167 HD
ENDBRANCH  12  14
ENDBRANCH  10  12
BRANCH   1  16
HETATM   16  C   UNK N   1      11.492  -2.036   0.182  0.00  0.00     0.002 C 
HETATM   17  C   UNK N   1      13.013  -1.946   0.020  0.00  0.00     0.005 C 
ENDBRANCH   1  16
TORSDOF 3
ENDMDL
MODEL 8
REMARK VINA RESULT:      -5.8      3.104      5.090
REMARK  3 active torsions:
REMARK  status: ('A' for Active; 'I' for Inactive)
REMARK    1  A    between atoms: C_2  and  C_3 
REMARK    2  A    between atoms: C_12  and  C_13 
REMARK    3  A    between atoms: C_13  and  O_15 
ROOT
HETATM    1  C   UNK N   1      11.734  -4.163   1.504  0.00  0.00     0.014 C 
HETATM    2  C   UNK N   1      12.809  -5.003   2.212  0.00  0.00     0.180 C 
HETATM    3  O   UNK N   1      12.238  -5.800   3.191  0.00  0.00    -0.349 OA
HETATM    4  C   UNK N   1      11.269  -5.356   4.040  0.00  0.00     0.095 A 
HETATM    5  C   UNK N   1      10.624  -4.124   3.776  0.00  0.00    -0.023 A 
HETATM    6  C   UNK N   1       9.633  -3.655   4.642  0.00  0.00     0.013 A 
HETATM    7  C   UNK N   1       9.264  -4.403   5.756  0.00  0.00     0.044 A 
HETATM    8  C   UNK N   1       9.890  -5.621   6.033  0.00  0.00     0.136 A 
HETATM    9  F   UNK N   1       9.501  -6.312   7.134  0.00  0.00    -0.205 F 
HETATM   10  C   UNK N   1      10.903  -6.117   5.180  0.00  0.00     0.110 A 
HETATM   11  C   UNK N   1      11.030  -3.300   2.576  0.00  0.00     0.048 C 
ENDROOT
BRANCH  10  12
HETATM   12  C   UNK N   1      11.579  -7.412   5.501  0.00  0.00     0.182 C 
HETATM   13  O   UNK N   1      11.264  -8.439   4.914  0.00  0.00    -0.646 OA
BRANCH  12  14
HETATM   14  O   UNK N   1      12.559  -7.460   6.430  0.00  0.00    -0.772 OA
HETATM   15  H   UNK N   1      12.436  -7.923   7.271  0.00  0.00     0.167 HD
ENDBRANCH  12  14
ENDBRANCH  10  12
BRANCH   1  16
HETATM   16  C   UNK N   1      10.755  -5.075   0.725  0.00  0.00     0.002 C 
HETATM   17  C   UNK N   1       9.503  -4.332   0.250  0.00  0.00     0.005 C 
ENDBRANCH   1  16
TORSDOF 3
ENDMDL
MODEL 9
REMARK VINA RESULT:      -5.5      2.236      4.838
REMARK  3 active torsions:
REMARK  status: ('A' for Active; 'I' for Inactive)
REMARK    1  A    between atoms: C_2  and  C_3 
REMARK    2  A    between atoms: C_12  and  C_13 
REMARK    3  A    between atoms: C_13  and  O_15 
ROOT
HETATM    1  C   UNK N   1      12.944 -13.201   6.276  0.00  0.00     0.014 C 
HETATM    2  C   UNK N   1      13.026 -12.628   7.700  0.00  0.00     0.180 C 
HETATM    3  O   UNK N   1      12.050 -11.665   7.895  0.00  0.00    -0.349 OA
HETATM    4  C   UNK N   1      11.739 -10.721   6.963  0.00  0.00     0.095 A 
HETATM    5  C   UNK N   1      12.234 -10.857   5.645  0.00  0.00    -0.023 A 
HETATM    6  C   UNK N   1      11.927  -9.892   4.681  0.00  0.00     0.013 A 
HETATM    7  C   UNK N   1      11.122  -8.806   5.008  0.00  0.00     0.044 A 
HETATM    8  C   UNK N   1      10.624  -8.656   6.304  0.00  0.00     0.136 A 
HETATM    9  F   UNK N   1       9.848  -7.577   6.577  0.00  0.00    -0.205 F 
HETATM   10  C   UNK N   1      10.926  -9.610   7.303  0.00  0.00     0.110 A 
HETATM   11  C   UNK N   1      13.122 -12.026   5.287  0.00  0.00     0.048 C 
ENDROOT
BRANCH  10  12
HETATM   12  C   UNK N   1      10.403  -9.424   8.693  0.00  0.00     0.182 C 
HETATM   13  O   UNK N   1      11.147  -9.053   9.591  0.00  0.00    -0.646 OA
BRANCH  12  14
HETATM   14  O   UNK N   1       9.099  -9.644   8.967  0.00  0.00    -0.772 OA
HETATM   15  H   UNK N   1       8.402  -9.086   8.593  0.00  0.00     0.167 HD
ENDBRANCH  12  14
ENDBRANCH  10  12
BRANCH   1  16
HETATM   16  C   UNK N   1      11.612 -13.965   6.071  0.00  0.00     0.002 C 
HETATM   17  C   UNK N   1      11.710 -15.441   6.467  0.00  0.00     0.005 C 
ENDBRANCH   1  16
TORSDOF 3
ENDMDL
