MODEL 1
REMARK VINA RESULT:      -6.5      0.000      0.000
REMARK  4 active torsions:
REMARK  status: ('A' for Active; 'I' for Inactive)
REMARK    1  A    between atoms: C_2  and  O_3 
REMARK    2  A    between atoms: C_2  and  C_4 
REMARK    3  A    between atoms: C_4  and  C_5 
REMARK    4  A    between atoms: C_5  and  C_6 
ROOT
HETATM    1  C   UNK N   1      10.693  -5.453   3.022  0.00  0.00     0.046 A 
HETATM    2  C   UNK N   1      12.084  -5.755   3.681  0.00  0.00     0.185 A 
HETATM    3  O   UNK N   1      13.043  -5.383   2.752  0.00  0.00    -0.347 OA
HETATM    4  C   UNK N   1      12.487  -5.038   1.591  0.00  0.00     0.114 A 
HETATM    5  C   UNK N   1      13.178  -4.692   0.432  0.00  0.00     0.150 A 
HETATM    6  F   UNK N   1      14.532  -4.662   0.413  0.00  0.00    -0.203 F 
HETATM    7  C   UNK N   1      12.438  -4.385  -0.722  0.00  0.00     0.045 A 
HETATM    8  C   UNK N   1      11.032  -4.438  -0.688  0.00  0.00     0.004 A 
HETATM    9  C   UNK N   1      10.367  -4.787   0.501  0.00  0.00     0.011 A 
HETATM   10  C   UNK N   1      11.131  -5.076   1.642  0.00  0.00    -0.015 A 
ENDROOT
BRANCH   1  11
HETATM   11  C   UNK N   1       9.975  -4.301   3.780  0.00  0.00     0.022 C 
BRANCH  11  12
HETATM   12  C   UNK N   1       8.959  -4.764   4.835  0.00  0.00     0.110 C 
BRANCH  12  13
HETATM   13  C   UNK N   1       9.583  -4.801   6.201  0.00  0.00     0.139 C 
HETATM   14  O   UNK N   1       9.678  -5.861   6.801  0.00  0.00    -0.650 OA
BRANCH  13  15
HETATM   15  O   UNK N   1      10.007  -3.657   6.779  0.00  0.00    -0.776 OA
HETATM   16  H   UNK N   1      10.939  -3.401   6.751  0.00  0.00     0.167 HD
ENDBRANCH  13  15
ENDBRANCH  12  13
ENDBRANCH  11  12
ENDBRANCH   1  11
TORSDOF 4
ENDMDL
MODEL 2
REMARK VINA RESULT:      -6.4      4.336      6.627
REMARK  4 active torsions:
REMARK  status: ('A' for Active; 'I' for Inactive)
REMARK    1  A    between atoms: C_2  and  O_3 
REMARK    2  A    between atoms: C_2  and  C_4 
REMARK    3  A    between atoms: C_4  and  C_5 
REMARK    4  A    between atoms: C_5  and  C_6 
ROOT
HETATM    1  C   UNK N   1      10.551  -7.509   4.824  0.00  0.00     0.046 A 
HETATM    2  C   UNK N   1       9.810  -6.793   6.008  0.00  0.00     0.185 A 
HETATM    3  O   UNK N   1      10.065  -7.550   7.140  0.00  0.00    -0.347 OA
HETATM    4  C   UNK N   1      10.713  -8.674   6.838  0.00  0.00     0.114 A 
HETATM    5  C   UNK N   1      11.047  -9.685   7.736  0.00  0.00     0.150 A 
HETATM    6  F   UNK N   1      10.737  -9.578   9.051  0.00  0.00    -0.203 F 
HETATM    7  C   UNK N   1      11.704 -10.827   7.247  0.00  0.00     0.045 A 
HETATM    8  C   UNK N   1      12.003 -10.929   5.875  0.00  0.00     0.004 A 
HETATM    9  C   UNK N   1      11.655  -9.887   4.997  0.00  0.00     0.011 A 
HETATM   10  C   UNK N   1      11.011  -8.754   5.515  0.00  0.00    -0.015 A 
ENDROOT
BRANCH   1  11
HETATM   11  C   UNK N   1      11.717  -6.623   4.302  0.00  0.00     0.022 C 
BRANCH  11  12
HETATM   12  C   UNK N   1      11.405  -5.850   3.012  0.00  0.00     0.110 C 
BRANCH  12  13
HETATM   13  C   UNK N   1      12.537  -4.933   2.648  0.00  0.00     0.139 C 
HETATM   14  O   UNK N   1      13.369  -5.285   1.826  0.00  0.00    -0.650 OA
BRANCH  13  15
HETATM   15  O   UNK N   1      12.654  -3.734   3.256  0.00  0.00    -0.776 OA
HETATM   16  H   UNK N   1      12.895  -3.671   4.191  0.00  0.00     0.167 HD
ENDBRANCH  13  15
ENDBRANCH  12  13
ENDBRANCH  11  12
ENDBRANCH   1  11
TORSDOF 4
ENDMDL
MODEL 3
REMARK VINA RESULT:      -6.2      4.775      6.510
REMARK  4 active torsions:
REMARK  status: ('A' for Active; 'I' for Inactive)
REMARK    1  A    between atoms: C_2  and  O_3 
REMARK    2  A    between atoms: C_2  and  C_4 
REMARK    3  A    between atoms: C_4  and  C_5 
REMARK    4  A    between atoms: C_5  and  C_6 
ROOT
HETATM    1  C   UNK N   1      10.949  -7.654   5.253  0.00  0.00     0.046 A 
HETATM    2  C   UNK N   1       9.926  -8.036   4.126  0.00  0.00     0.185 A 
HETATM    3  O   UNK N   1       9.400  -9.269   4.481  0.00  0.00    -0.347 OA
HETATM    4  C   UNK N   1      10.018  -9.772   5.549  0.00  0.00     0.114 A 
HETATM    5  C   UNK N   1       9.780 -11.025   6.108  0.00  0.00     0.150 A 
HETATM    6  F   UNK N   1       8.841 -11.851   5.588  0.00  0.00    -0.203 F 
HETATM    7  C   UNK N   1      10.545 -11.420   7.219  0.00  0.00     0.045 A 
HETATM    8  C   UNK N   1      11.529 -10.554   7.735  0.00  0.00     0.004 A 
HETATM    9  C   UNK N   1      11.739  -9.294   7.148  0.00  0.00     0.011 A 
HETATM   10  C   UNK N   1      10.952  -8.922   6.048  0.00  0.00    -0.015 A 
ENDROOT
BRANCH   1  11
HETATM   11  C   UNK N   1      10.438  -6.423   6.052  0.00  0.00     0.022 C 
BRANCH  11  12
HETATM   12  C   UNK N   1       9.809  -5.317   5.191  0.00  0.00     0.110 C 
BRANCH  12  13
HETATM   13  C   UNK N   1       9.381  -4.154   6.039  0.00  0.00     0.139 C 
HETATM   14  O   UNK N   1       8.405  -3.491   5.720  0.00  0.00    -0.650 OA
BRANCH  13  15
HETATM   15  O   UNK N   1      10.095  -3.820   7.135  0.00  0.00    -0.776 OA
HETATM   16  H   UNK N   1       9.656  -3.565   7.957  0.00  0.00     0.167 HD
ENDBRANCH  13  15
ENDBRANCH  12  13
ENDBRANCH  11  12
ENDBRANCH   1  11
TORSDOF 4
ENDMDL
MODEL 4
REMARK VINA RESULT:      -6.1      5.997      7.574
REMARK  4 active torsions:
REMARK  status: ('A' for Active; 'I' for Inactive)
REMARK    1  A    between atoms: C_2  and  O_3 
REMARK    2  A    between atoms: C_2  and  C_4 
REMARK    3  A    between atoms: C_4  and  C_5 
REMARK    4  A    between atoms: C_5  and  C_6 
ROOT
HETATM    1  C   UNK N   1      10.852  -9.887   6.337  0.00  0.00     0.046 A 
HETATM    2  C   UNK N   1      10.624  -9.969   7.888  0.00  0.00     0.185 A 
HETATM    3  O   UNK N   1      11.578 -10.849   8.375  0.00  0.00    -0.347 OA
HETATM    4  C   UNK N   1      12.258 -11.426   7.385  0.00  0.00     0.114 A 
HETATM    5  C   UNK N   1      13.228 -12.414   7.535  0.00  0.00     0.150 A 
HETATM    6  F   UNK N   1      13.578 -12.864   8.764  0.00  0.00    -0.203 F 
HETATM    7  C   UNK N   1      13.829 -12.944   6.381  0.00  0.00     0.045 A 
HETATM    8  C   UNK N   1      13.441 -12.477   5.111  0.00  0.00     0.004 A 
HETATM    9  C   UNK N   1      12.461 -11.475   4.997  0.00  0.00     0.011 A 
HETATM   10  C   UNK N   1      11.887 -10.955   6.166  0.00  0.00    -0.015 A 
ENDROOT
BRANCH   1  11
HETATM   11  C   UNK N   1      11.352  -8.471   5.938  0.00  0.00     0.022 C 
BRANCH  11  12
HETATM   12  C   UNK N   1      10.427  -7.714   4.974  0.00  0.00     0.110 C 
BRANCH  12  13
HETATM   13  C   UNK N   1       9.658  -6.644   5.695  0.00  0.00     0.139 C 
HETATM   14  O   UNK N   1       9.239  -5.674   5.082  0.00  0.00    -0.650 OA
BRANCH  13  15
HETATM   15  O   UNK N   1       9.462  -6.738   7.027  0.00  0.00    -0.776 OA
HETATM   16  H   UNK N   1       9.051  -6.015   7.522  0.00  0.00     0.167 HD
ENDBRANCH  13  15
ENDBRANCH  12  13
ENDBRANCH  11  12
ENDBRANCH   1  11
TORSDOF 4
ENDMDL
MODEL 5
REMARK VINA RESULT:      -6.1      4.031      5.503
REMARK  4 active torsions:
REMARK  status: ('A' for Active; 'I' for Inactive)
REMARK    1  A    between atoms: C_2  and  O_3 
REMARK    2  A    between atoms: C_2  and  C_4 
REMARK    3  A    between atoms: C_4  and  C_5 
REMARK    4  A    between atoms: C_5  and  C_6 
ROOT
HETATM    1  C   UNK N   1      10.845  -7.977   4.500  0.00  0.00     0.046 A 
HETATM    2  C   UNK N   1      11.673  -7.725   5.809  0.00  0.00     0.185 A 
HETATM    3  O   UNK N   1      11.154  -6.576   6.383  0.00  0.00    -0.347 OA
HETATM    4  C   UNK N   1      10.250  -6.002   5.590  0.00  0.00     0.114 A 
HETATM    5  C   UNK N   1       9.602  -4.794   5.839  0.00  0.00     0.150 A 
HETATM    6  F   UNK N   1       9.846  -4.096   6.975  0.00  0.00    -0.203 F 
HETATM    7  C   UNK N   1       8.697  -4.309   4.881  0.00  0.00     0.045 A 
HETATM    8  C   UNK N   1       8.468  -5.040   3.700  0.00  0.00     0.004 A 
HETATM    9  C   UNK N   1       9.137  -6.257   3.483  0.00  0.00     0.011 A 
HETATM   10  C   UNK N   1      10.026  -6.724   4.462  0.00  0.00    -0.015 A 
ENDROOT
BRANCH   1  11
HETATM   11  C   UNK N   1       9.993  -9.269   4.639  0.00  0.00     0.022 C 
BRANCH  11  12
HETATM   12  C   UNK N   1      10.700 -10.428   5.358  0.00  0.00     0.110 C 
BRANCH  12  13
HETATM   13  C   UNK N   1       9.772 -11.109   6.322  0.00  0.00     0.139 C 
HETATM   14  O   UNK N   1      10.222 -11.683   7.302  0.00  0.00    -0.650 OA
BRANCH  13  15
HETATM   15  O   UNK N   1       8.443 -11.116   6.087  0.00  0.00    -0.776 OA
HETATM   16  H   UNK N   1       7.808 -11.031   6.812  0.00  0.00     0.167 HD
ENDBRANCH  13  15
ENDBRANCH  12  13
ENDBRANCH  11  12
ENDBRANCH   1  11
TORSDOF 4
ENDMDL
MODEL 6
REMARK VINA RESULT:      -6.1      2.985      3.995
REMARK  4 active torsions:
REMARK  status: ('A' for Active; 'I' for Inactive)
REMARK    1  A    between atoms: C_2  and  O_3 
REMARK    2  A    between atoms: C_2  and  C_4 
REMARK    3  A    between atoms: C_4  and  C_5 
REMARK    4  A    between atoms: C_5  and  C_6 
ROOT
HETATM    1  C   UNK N   1      10.891  -6.842   4.911  0.00  0.00     0.046 A 
HETATM    2  C   UNK N   1       9.325  -6.863   4.806  0.00  0.00     0.185 A 
HETATM    3  O   UNK N   1       9.015  -6.397   3.538  0.00  0.00    -0.347 OA
HETATM    4  C   UNK N   1      10.101  -5.965   2.900  0.00  0.00     0.114 A 
HETATM    5  C   UNK N   1      10.118  -5.366   1.642  0.00  0.00     0.150 A 
HETATM    6  F   UNK N   1       8.973  -5.191   0.939  0.00  0.00    -0.203 F 
HETATM    7  C   UNK N   1      11.350  -4.934   1.122  0.00  0.00     0.045 A 
HETATM    8  C   UNK N   1      12.527  -5.108   1.874  0.00  0.00     0.004 A 
HETATM    9  C   UNK N   1      12.474  -5.721   3.138  0.00  0.00     0.011 A 
HETATM   10  C   UNK N   1      11.232  -6.154   3.627  0.00  0.00    -0.015 A 
ENDROOT
BRANCH   1  11
HETATM   11  C   UNK N   1      11.446  -8.291   5.003  0.00  0.00     0.022 C 
BRANCH  11  12
HETATM   12  C   UNK N   1      11.905  -8.713   6.407  0.00  0.00     0.110 C 
BRANCH  12  13
HETATM   13  C   UNK N   1      10.761  -9.276   7.201  0.00  0.00     0.139 C 
HETATM   14  O   UNK N   1      10.697  -9.077   8.405  0.00  0.00    -0.650 OA
BRANCH  13  15
HETATM   15  O   UNK N   1       9.824 -10.030   6.589  0.00  0.00    -0.776 OA
HETATM   16  H   UNK N   1       9.710 -10.001   5.629  0.00  0.00     0.167 HD
ENDBRANCH  13  15
ENDBRANCH  12  13
ENDBRANCH  11  12
ENDBRANCH   1  11
TORSDOF 4
ENDMDL
MODEL 7
REMARK VINA RESULT:      -5.8      2.834      5.701
REMARK  4 active torsions:
REMARK  status: ('A' for Active; 'I' for Inactive)
REMARK    1  A    between atoms: C_2  and  O_3 
REMARK    2  A    between atoms: C_2  and  C_4 
REMARK    3  A    between atoms: C_4  and  C_5 
REMARK    4  A    between atoms: C_5  and  C_6 
ROOT
HETATM    1  C   UNK N   1      11.108  -5.362   2.215  0.00  0.00     0.046 A 
HETATM    2  C   UNK N   1      10.410  -3.957   2.222  0.00  0.00     0.185 A 
HETATM    3  O   UNK N   1       9.913  -3.776   3.503  0.00  0.00    -0.347 OA
HETATM    4  C   UNK N   1      10.061  -4.875   4.242  0.00  0.00     0.114 A 
HETATM    5  C   UNK N   1       9.596  -5.046   5.544  0.00  0.00     0.150 A 
HETATM    6  F   UNK N   1       8.947  -4.046   6.187  0.00  0.00    -0.203 F 
HETATM    7  C   UNK N   1       9.806  -6.284   6.173  0.00  0.00     0.045 A 
HETATM    8  C   UNK N   1      10.468  -7.317   5.483  0.00  0.00     0.004 A 
HETATM    9  C   UNK N   1      10.928  -7.109   4.171  0.00  0.00     0.011 A 
HETATM   10  C   UNK N   1      10.715  -5.858   3.572  0.00  0.00    -0.015 A 
ENDROOT
BRANCH   1  11
HETATM   11  C   UNK N   1      12.644  -5.202   2.035  0.00  0.00     0.022 C 
BRANCH  11  12
HETATM   12  C   UNK N   1      13.079  -4.737   0.638  0.00  0.00     0.110 C 
BRANCH  12  13
HETATM   13  C   UNK N   1      13.872  -3.463   0.718  0.00  0.00     0.139 C 
HETATM   14  O   UNK N   1      13.520  -2.483   0.079  0.00  0.00    -0.650 OA
BRANCH  13  15
HETATM   15  O   UNK N   1      14.992  -3.413   1.470  0.00  0.00    -0.776 OA
HETATM   16  H   UNK N   1      15.839  -3.150   1.084  0.00  0.00     0.167 HD
ENDBRANCH  13  15
ENDBRANCH  12  13
ENDBRANCH  11  12
ENDBRANCH   1  11
TORSDOF 4
ENDMDL
MODEL 8
REMARK VINA RESULT:      -5.7      3.639      4.887
REMARK  4 active torsions:
REMARK  status: ('A' for Active; 'I' for Inactive)
REMARK    1  A    between atoms: C_2  and  O_3 
REMARK    2  A    between atoms: C_2  and  C_4 
REMARK    3  A    between atoms: C_4  and  C_5 
REMARK    4  A    between atoms: C_5  and  C_6 
ROOT
HETATM    1  C   UNK N   1       8.966  -4.488   5.153  0.00  0.00     0.046 A 
HETATM    2  C   UNK N   1       9.748  -4.193   6.480  0.00  0.00     0.185 A 
HETATM    3  O   UNK N   1      10.576  -5.284   6.695  0.00  0.00    -0.347 OA
HETATM    4  C   UNK N   1      10.339  -6.254   5.813  0.00  0.00     0.114 A 
HETATM    5  C   UNK N   1      10.944  -7.509   5.805  0.00  0.00     0.150 A 
HETATM    6  F   UNK N   1      11.878  -7.836   6.730  0.00  0.00    -0.203 F 
HETATM    7  C   UNK N   1      10.556  -8.434   4.821  0.00  0.00     0.045 A 
HETATM    8  C   UNK N   1       9.572  -8.082   3.878  0.00  0.00     0.004 A 
HETATM    9  C   UNK N   1       8.985  -6.805   3.913  0.00  0.00     0.011 A 
HETATM   10  C   UNK N   1       9.401  -5.898   4.898  0.00  0.00    -0.015 A 
ENDROOT
BRANCH   1  11
HETATM   11  C   UNK N   1       9.399  -3.495   4.038  0.00  0.00     0.022 C 
BRANCH  11  12
HETATM   12  C   UNK N   1      10.911  -3.238   3.962  0.00  0.00     0.110 C 
BRANCH  12  13
HETATM   13  C   UNK N   1      11.226  -1.799   4.257  0.00  0.00     0.139 C 
HETATM   14  O   UNK N   1      10.364  -0.944   4.116  0.00  0.00    -0.650 OA
BRANCH  13  15
HETATM   15  O   UNK N   1      12.470  -1.447   4.642  0.00  0.00    -0.776 OA
HETATM   16  H   UNK N   1      13.166  -2.110   4.743  0.00  0.00     0.167 HD
ENDBRANCH  13  15
ENDBRANCH  12  13
ENDBRANCH  11  12
ENDBRANCH   1  11
TORSDOF 4
ENDMDL
MODEL 9
REMARK VINA RESULT:      -5.7      2.326      2.993
REMARK  4 active torsions:
REMARK  status: ('A' for Active; 'I' for Inactive)
REMARK    1  A    between atoms: C_2  and  O_3 
REMARK    2  A    between atoms: C_2  and  C_4 
REMARK    3  A    between atoms: C_4  and  C_5 
REMARK    4  A    between atoms: C_5  and  C_6 
ROOT
HETATM    1  C   UNK N   1      11.585  -5.267   4.054  0.00  0.00     0.046 A 
HETATM    2  C   UNK N   1      10.291  -4.463   4.430  0.00  0.00     0.185 A 
HETATM    3  O   UNK N   1       9.829  -3.898   3.251  0.00  0.00    -0.347 OA
HETATM    4  C   UNK N   1      10.683  -4.097   2.249  0.00  0.00     0.114 A 
HETATM    5  C   UNK N   1      10.552  -3.590   0.958  0.00  0.00     0.150 A 
HETATM    6  F   UNK N   1       9.479  -2.838   0.612  0.00  0.00    -0.203 F 
HETATM    7  C   UNK N   1      11.564  -3.866   0.023  0.00  0.00     0.045 A 
HETATM    8  C   UNK N   1      12.680  -4.635   0.405  0.00  0.00     0.004 A 
HETATM    9  C   UNK N   1      12.778  -5.134   1.716  0.00  0.00     0.011 A 
HETATM   10  C   UNK N   1      11.747  -4.853   2.624  0.00  0.00    -0.015 A 
ENDROOT
BRANCH   1  11
HETATM   11  C   UNK N   1      11.346  -6.792   4.234  0.00  0.00     0.022 C 
BRANCH  11  12
HETATM   12  C   UNK N   1      11.736  -7.342   5.614  0.00  0.00     0.110 C 
BRANCH  12  13
HETATM   13  C   UNK N   1      10.548  -7.946   6.307  0.00  0.00     0.139 C 
HETATM   14  O   UNK N   1      10.420  -9.160   6.352  0.00  0.00    -0.650 OA
BRANCH  13  15
HETATM   15  O   UNK N   1       9.606  -7.146   6.849  0.00  0.00    -0.776 OA
HETATM   16  H   UNK N   1       8.757  -7.505   7.142  0.00  0.00     0.167 HD
ENDBRANCH  13  15
ENDBRANCH  12  13
ENDBRANCH  11  12
ENDBRANCH   1  11
TORSDOF 4
ENDMDL
