MODEL 1
REMARK VINA RESULT:      -6.6      0.000      0.000
REMARK  6 active torsions:
REMARK  status: ('A' for Active; 'I' for Inactive)
REMARK    1  A    between atoms: C_2  and  O_3 
REMARK    2  A    between atoms: C_2  and  C_15 
REMARK    3  A    between atoms: O_3  and  C_4 
REMARK    4  A    between atoms: C_11  and  C_12 
REMARK    5  A    between atoms: C_12  and  O_14 
REMARK    6  A    between atoms: C_15  and  O_17 
ROOT
HETATM    1  C   UNK N   1      11.698  -4.329   3.574  0.00  0.00     0.088 A 
HETATM    2  C   UNK N   1      12.091  -5.353   2.703  0.00  0.00     0.041 A 
HETATM    3  C   UNK N   1      12.844  -5.069   1.569  0.00  0.00     0.047 A 
HETATM    4  C   UNK N   1      13.222  -3.759   1.288  0.00  0.00     0.139 A 
HETATM    5  F   UNK N   1      13.957  -3.503   0.176  0.00  0.00    -0.204 F 
HETATM    6  C   UNK N   1      12.839  -2.710   2.136  0.00  0.00     0.092 A 
HETATM    7 Cl   UNK N   1      13.335  -1.079   1.676  0.00  0.00    -0.080 Cl
HETATM    8  C   UNK N   1      12.050  -2.978   3.291  0.00  0.00     0.095 A 
ENDROOT
BRANCH   1   9
HETATM    9  O   UNK N   1      10.993  -4.659   4.683  0.00  0.00    -0.335 OA
BRANCH   9  10
HETATM   10  C   UNK N   1       9.769  -5.314   4.621  0.00  0.00     0.222 C 
HETATM   11  C   UNK N   1       9.697  -6.352   5.738  0.00  0.00     0.051 C 
BRANCH  10  12
HETATM   12  C   UNK N   1       8.633  -4.332   4.749  0.00  0.00     0.170 C 
HETATM   13  O   UNK N   1       7.741  -4.317   3.914  0.00  0.00    -0.648 OA
BRANCH  12  14
HETATM   14  O   UNK N   1       8.601  -3.467   5.786  0.00  0.00    -0.774 OA
HETATM   15  H   UNK N   1       8.635  -2.511   5.642  0.00  0.00     0.167 HD
ENDBRANCH  12  14
ENDBRANCH  10  12
ENDBRANCH   9  10
ENDBRANCH   1   9
BRANCH   8  16
HETATM   16  C   UNK N   1      11.562  -1.873   4.181  0.00  0.00     0.180 C 
HETATM   17  O   UNK N   1      10.389  -1.528   4.166  0.00  0.00    -0.646 OA
BRANCH  16  18
HETATM   18  O   UNK N   1      12.402  -1.283   5.057  0.00  0.00    -0.772 OA
HETATM   19  H   UNK N   1      13.237  -0.888   4.768  0.00  0.00     0.167 HD
ENDBRANCH  16  18
ENDBRANCH   8  16
TORSDOF 6
ENDMDL
MODEL 2
REMARK VINA RESULT:      -6.3      5.993      7.643
REMARK  6 active torsions:
REMARK  status: ('A' for Active; 'I' for Inactive)
REMARK    1  A    between atoms: C_2  and  O_3 
REMARK    2  A    between atoms: C_2  and  C_15 
REMARK    3  A    between atoms: O_3  and  C_4 
REMARK    4  A    between atoms: C_11  and  C_12 
REMARK    5  A    between atoms: C_12  and  O_14 
REMARK    6  A    between atoms: C_15  and  O_17 
ROOT
HETATM    1  C   UNK N   1      11.026  -9.961   5.646  0.00  0.00     0.088 A 
HETATM    2  C   UNK N   1      11.508 -10.534   4.463  0.00  0.00     0.041 A 
HETATM    3  C   UNK N   1      12.422 -11.582   4.503  0.00  0.00     0.047 A 
HETATM    4  C   UNK N   1      12.866 -12.078   5.725  0.00  0.00     0.139 A 
HETATM    5  F   UNK N   1      13.759 -13.100   5.743  0.00  0.00    -0.204 F 
HETATM    6  C   UNK N   1      12.409 -11.521   6.928  0.00  0.00     0.092 A 
HETATM    7 Cl   UNK N   1      13.060 -12.193   8.427  0.00  0.00    -0.080 Cl
HETATM    8  C   UNK N   1      11.489 -10.434   6.908  0.00  0.00     0.095 A 
ENDROOT
BRANCH   1   9
HETATM    9  O   UNK N   1      10.112  -8.965   5.556  0.00  0.00    -0.335 OA
BRANCH   9  10
HETATM   10  C   UNK N   1      10.437  -7.695   5.097  0.00  0.00     0.222 C 
HETATM   11  C   UNK N   1       9.562  -7.356   3.892  0.00  0.00     0.051 C 
BRANCH  10  12
HETATM   12  C   UNK N   1      10.242  -6.670   6.185  0.00  0.00     0.170 C 
HETATM   13  O   UNK N   1      10.846  -5.609   6.140  0.00  0.00    -0.648 OA
BRANCH  12  14
HETATM   14  O   UNK N   1       9.402  -6.925   7.211  0.00  0.00    -0.774 OA
HETATM   15  H   UNK N   1       8.566  -7.389   7.070  0.00  0.00     0.167 HD
ENDBRANCH  12  14
ENDBRANCH  10  12
ENDBRANCH   9  10
ENDBRANCH   1   9
BRANCH   8  16
HETATM   16  C   UNK N   1      11.034  -9.767   8.172  0.00  0.00     0.180 C 
HETATM   17  O   UNK N   1      11.840  -9.255   8.936  0.00  0.00    -0.646 OA
BRANCH  16  18
HETATM   18  O   UNK N   1       9.718  -9.669   8.454  0.00  0.00    -0.772 OA
HETATM   19  H   UNK N   1       9.267  -8.813   8.472  0.00  0.00     0.167 HD
ENDBRANCH  16  18
ENDBRANCH   8  16
TORSDOF 6
ENDMDL
MODEL 3
REMARK VINA RESULT:      -6.2      2.321      3.056
REMARK  6 active torsions:
REMARK  status: ('A' for Active; 'I' for Inactive)
REMARK    1  A    between atoms: C_2  and  O_3 
REMARK    2  A    between atoms: C_2  and  C_15 
REMARK    3  A    between atoms: O_3  and  C_4 
REMARK    4  A    between atoms: C_11  and  C_12 
REMARK    5  A    between atoms: C_12  and  O_14 
REMARK    6  A    between atoms: C_15  and  O_17 
ROOT
HETATM    1  C   UNK N   1      11.353  -5.423   3.991  0.00  0.00     0.088 A 
HETATM    2  C   UNK N   1      12.111  -5.714   2.851  0.00  0.00     0.041 A 
HETATM    3  C   UNK N   1      12.050  -4.892   1.730  0.00  0.00     0.047 A 
HETATM    4  C   UNK N   1      11.236  -3.764   1.732  0.00  0.00     0.139 A 
HETATM    5  F   UNK N   1      11.189  -2.976   0.628  0.00  0.00    -0.204 F 
HETATM    6  C   UNK N   1      10.458  -3.449   2.855  0.00  0.00     0.092 A 
HETATM    7 Cl   UNK N   1       9.427  -2.018   2.747  0.00  0.00    -0.080 Cl
HETATM    8  C   UNK N   1      10.491  -4.289   4.005  0.00  0.00     0.095 A 
ENDROOT
BRANCH   1   9
HETATM    9  O   UNK N   1      11.470  -6.235   5.070  0.00  0.00    -0.335 OA
BRANCH   9  10
HETATM   10  C   UNK N   1      10.720  -7.394   5.215  0.00  0.00     0.222 C 
HETATM   11  C   UNK N   1      11.594  -8.603   4.890  0.00  0.00     0.051 C 
BRANCH  10  12
HETATM   12  C   UNK N   1      10.179  -7.506   6.618  0.00  0.00     0.170 C 
HETATM   13  O   UNK N   1      10.457  -8.477   7.305  0.00  0.00    -0.648 OA
BRANCH  12  14
HETATM   14  O   UNK N   1       9.385  -6.533   7.115  0.00  0.00    -0.774 OA
HETATM   15  H   UNK N   1       8.421  -6.597   7.059  0.00  0.00     0.167 HD
ENDBRANCH  12  14
ENDBRANCH  10  12
ENDBRANCH   9  10
ENDBRANCH   1   9
BRANCH   8  16
HETATM   16  C   UNK N   1       9.619  -4.023   5.196  0.00  0.00     0.180 C 
HETATM   17  O   UNK N   1       8.403  -4.127   5.119  0.00  0.00    -0.646 OA
BRANCH  16  18
HETATM   18  O   UNK N   1      10.172  -3.723   6.390  0.00  0.00    -0.772 OA
HETATM   19  H   UNK N   1      10.516  -4.413   6.975  0.00  0.00     0.167 HD
ENDBRANCH  16  18
ENDBRANCH   8  16
TORSDOF 6
ENDMDL
MODEL 4
REMARK VINA RESULT:      -6.0      1.869      2.215
REMARK  6 active torsions:
REMARK  status: ('A' for Active; 'I' for Inactive)
REMARK    1  A    between atoms: C_2  and  O_3 
REMARK    2  A    between atoms: C_2  and  C_15 
REMARK    3  A    between atoms: O_3  and  C_4 
REMARK    4  A    between atoms: C_11  and  C_12 
REMARK    5  A    between atoms: C_12  and  O_14 
REMARK    6  A    between atoms: C_15  and  O_17 
ROOT
HETATM    1  C   UNK N   1      11.612  -4.461   3.059  0.00  0.00     0.088 A 
HETATM    2  C   UNK N   1      12.608  -5.132   2.341  0.00  0.00     0.041 A 
HETATM    3  C   UNK N   1      12.784  -4.896   0.981  0.00  0.00     0.047 A 
HETATM    4  C   UNK N   1      11.972  -3.981   0.318  0.00  0.00     0.139 A 
HETATM    5  F   UNK N   1      12.159  -3.765  -1.009  0.00  0.00    -0.204 F 
HETATM    6  C   UNK N   1      10.960  -3.297   1.006  0.00  0.00     0.092 A 
HETATM    7 Cl   UNK N   1       9.957  -2.184   0.070  0.00  0.00    -0.080 Cl
HETATM    8  C   UNK N   1      10.750  -3.540   2.394  0.00  0.00     0.095 A 
ENDROOT
BRANCH   1   9
HETATM    9  O   UNK N   1      11.500  -4.699   4.388  0.00  0.00    -0.335 OA
BRANCH   9  10
HETATM   10  C   UNK N   1      10.657  -5.677   4.901  0.00  0.00     0.222 C 
HETATM   11  C   UNK N   1      11.460  -6.950   5.157  0.00  0.00     0.051 C 
BRANCH  10  12
HETATM   12  C   UNK N   1      10.009  -5.205   6.177  0.00  0.00     0.170 C 
HETATM   13  O   UNK N   1       9.959  -4.011   6.432  0.00  0.00    -0.648 OA
BRANCH  12  14
HETATM   14  O   UNK N   1       9.485  -6.102   7.041  0.00  0.00    -0.774 OA
HETATM   15  H   UNK N   1       9.283  -5.858   7.954  0.00  0.00     0.167 HD
ENDBRANCH  12  14
ENDBRANCH  10  12
ENDBRANCH   9  10
ENDBRANCH   1   9
BRANCH   8  16
HETATM   16  C   UNK N   1       9.632  -2.881   3.146  0.00  0.00     0.180 C 
HETATM   17  O   UNK N   1       8.465  -3.128   2.878  0.00  0.00    -0.646 OA
BRANCH  16  18
HETATM   18  O   UNK N   1       9.902  -2.050   4.175  0.00  0.00    -0.772 OA
HETATM   19  H   UNK N   1       9.263  -1.904   4.887  0.00  0.00     0.167 HD
ENDBRANCH  16  18
ENDBRANCH   8  16
TORSDOF 6
ENDMDL
MODEL 5
REMARK VINA RESULT:      -5.9      2.518      4.420
REMARK  6 active torsions:
REMARK  status: ('A' for Active; 'I' for Inactive)
REMARK    1  A    between atoms: C_2  and  O_3 
REMARK    2  A    between atoms: C_2  and  C_15 
REMARK    3  A    between atoms: O_3  and  C_4 
REMARK    4  A    between atoms: C_11  and  C_12 
REMARK    5  A    between atoms: C_12  and  O_14 
REMARK    6  A    between atoms: C_15  and  O_17 
ROOT
HETATM    1  C   UNK N   1      10.752  -2.523   3.753  0.00  0.00     0.088 A 
HETATM    2  C   UNK N   1      11.659  -2.420   2.692  0.00  0.00     0.041 A 
HETATM    3  C   UNK N   1      12.370  -3.534   2.255  0.00  0.00     0.047 A 
HETATM    4  C   UNK N   1      12.182  -4.769   2.867  0.00  0.00     0.139 A 
HETATM    5  F   UNK N   1      12.885  -5.843   2.427  0.00  0.00    -0.204 F 
HETATM    6  C   UNK N   1      11.286  -4.904   3.938  0.00  0.00     0.092 A 
HETATM    7 Cl   UNK N   1      11.145  -6.504   4.674  0.00  0.00    -0.080 Cl
HETATM    8  C   UNK N   1      10.565  -3.772   4.413  0.00  0.00     0.095 A 
ENDROOT
BRANCH   1   9
HETATM    9  O   UNK N   1      10.059  -1.418   4.121  0.00  0.00    -0.335 OA
BRANCH   9  10
HETATM   10  C   UNK N   1      10.293  -0.170   3.558  0.00  0.00     0.222 C 
HETATM   11  C   UNK N   1       8.971   0.417   3.069  0.00  0.00     0.051 C 
BRANCH  10  12
HETATM   12  C   UNK N   1      10.933   0.755   4.561  0.00  0.00     0.170 C 
HETATM   13  O   UNK N   1      10.674   1.948   4.544  0.00  0.00    -0.648 OA
BRANCH  12  14
HETATM   14  O   UNK N   1      11.795   0.264   5.478  0.00  0.00    -0.774 OA
HETATM   15  H   UNK N   1      12.241   0.847   6.108  0.00  0.00     0.167 HD
ENDBRANCH  12  14
ENDBRANCH  10  12
ENDBRANCH   9  10
ENDBRANCH   1   9
BRANCH   8  16
HETATM   16  C   UNK N   1       9.653  -3.864   5.601  0.00  0.00     0.180 C 
HETATM   17  O   UNK N   1      10.105  -3.909   6.736  0.00  0.00    -0.646 OA
BRANCH  16  18
HETATM   18  O   UNK N   1       8.314  -3.837   5.434  0.00  0.00    -0.772 OA
HETATM   19  H   UNK N   1       7.711  -4.084   6.149  0.00  0.00     0.167 HD
ENDBRANCH  16  18
ENDBRANCH   8  16
TORSDOF 6
ENDMDL
MODEL 6
REMARK VINA RESULT:      -5.9      2.883      4.508
REMARK  6 active torsions:
REMARK  status: ('A' for Active; 'I' for Inactive)
REMARK    1  A    between atoms: C_2  and  O_3 
REMARK    2  A    between atoms: C_2  and  C_15 
REMARK    3  A    between atoms: O_3  and  C_4 
REMARK    4  A    between atoms: C_11  and  C_12 
REMARK    5  A    between atoms: C_12  and  O_14 
REMARK    6  A    between atoms: C_15  and  O_17 
ROOT
HETATM    1  C   UNK N   1      10.632  -4.192   3.048  0.00  0.00     0.088 A 
HETATM    2  C   UNK N   1      11.872  -4.723   2.674  0.00  0.00     0.041 A 
HETATM    3  C   UNK N   1      12.404  -5.821   3.343  0.00  0.00     0.047 A 
HETATM    4  C   UNK N   1      11.703  -6.410   4.392  0.00  0.00     0.139 A 
HETATM    5  F   UNK N   1      12.240  -7.480   5.032  0.00  0.00    -0.204 F 
HETATM    6  C   UNK N   1      10.462  -5.897   4.796  0.00  0.00     0.092 A 
HETATM    7 Cl   UNK N   1       9.668  -6.689   6.160  0.00  0.00    -0.080 Cl
HETATM    8  C   UNK N   1       9.911  -4.761   4.137  0.00  0.00     0.095 A 
ENDROOT
BRANCH   1   9
HETATM    9  O   UNK N   1      10.140  -3.142   2.346  0.00  0.00    -0.335 OA
BRANCH   9  10
HETATM   10  C   UNK N   1      10.730  -1.885   2.374  0.00  0.00     0.222 C 
HETATM   11  C   UNK N   1      10.194  -1.052   1.212  0.00  0.00     0.051 C 
BRANCH  10  12
HETATM   12  C   UNK N   1      10.448  -1.194   3.683  0.00  0.00     0.170 C 
HETATM   13  O   UNK N   1      11.357  -0.979   4.469  0.00  0.00    -0.648 OA
BRANCH  12  14
HETATM   14  O   UNK N   1       9.188  -0.814   3.988  0.00  0.00    -0.774 OA
HETATM   15  H   UNK N   1       8.939  -0.590   4.896  0.00  0.00     0.167 HD
ENDBRANCH  12  14
ENDBRANCH  10  12
ENDBRANCH   9  10
ENDBRANCH   1   9
BRANCH   8  16
HETATM   16  C   UNK N   1       8.621  -4.143   4.588  0.00  0.00     0.180 C 
HETATM   17  O   UNK N   1       8.566  -3.488   5.620  0.00  0.00    -0.646 OA
BRANCH  16  18
HETATM   18  O   UNK N   1       7.512  -4.251   3.827  0.00  0.00    -0.772 OA
HETATM   19  H   UNK N   1       6.798  -3.598   3.877  0.00  0.00     0.167 HD
ENDBRANCH  16  18
ENDBRANCH   8  16
TORSDOF 6
ENDMDL
MODEL 7
REMARK VINA RESULT:      -5.8      2.884      3.518
REMARK  6 active torsions:
REMARK  status: ('A' for Active; 'I' for Inactive)
REMARK    1  A    between atoms: C_2  and  O_3 
REMARK    2  A    between atoms: C_2  and  C_15 
REMARK    3  A    between atoms: O_3  and  C_4 
REMARK    4  A    between atoms: C_11  and  C_12 
REMARK    5  A    between atoms: C_12  and  O_14 
REMARK    6  A    between atoms: C_15  and  O_17 
ROOT
HETATM    1  C   UNK N   1      10.018  -5.328   2.689  0.00  0.00     0.088 A 
HETATM    2  C   UNK N   1       8.718  -5.537   2.215  0.00  0.00     0.041 A 
HETATM    3  C   UNK N   1       8.429  -5.419   0.859  0.00  0.00     0.047 A 
HETATM    4  C   UNK N   1       9.436  -5.096  -0.046  0.00  0.00     0.139 A 
HETATM    5  F   UNK N   1       9.134  -4.985  -1.364  0.00  0.00    -0.204 F 
HETATM    6  C   UNK N   1      10.748  -4.874   0.397  0.00  0.00     0.092 A 
HETATM    7 Cl   UNK N   1      11.947  -4.432  -0.822  0.00  0.00    -0.080 Cl
HETATM    8  C   UNK N   1      11.059  -4.970   1.784  0.00  0.00     0.095 A 
ENDROOT
BRANCH   1   9
HETATM    9  O   UNK N   1      10.257  -5.487   4.014  0.00  0.00    -0.335 OA
BRANCH   9  10
HETATM   10  C   UNK N   1       9.709  -6.530   4.749  0.00  0.00     0.222 C 
HETATM   11  C   UNK N   1      10.593  -7.767   4.605  0.00  0.00     0.051 C 
BRANCH  10  12
HETATM   12  C   UNK N   1       9.584  -6.147   6.202  0.00  0.00     0.170 C 
HETATM   13  O   UNK N   1       9.492  -4.971   6.519  0.00  0.00    -0.648 OA
BRANCH  12  14
HETATM   14  O   UNK N   1       9.576  -7.105   7.154  0.00  0.00    -0.774 OA
HETATM   15  H   UNK N   1      10.237  -7.811   7.159  0.00  0.00     0.167 HD
ENDBRANCH  12  14
ENDBRANCH  10  12
ENDBRANCH   9  10
ENDBRANCH   1   9
BRANCH   8  16
HETATM   16  C   UNK N   1      12.434  -4.668   2.302  0.00  0.00     0.180 C 
HETATM   17  O   UNK N   1      13.405  -5.296   1.906  0.00  0.00    -0.646 OA
BRANCH  16  18
HETATM   18  O   UNK N   1      12.625  -3.654   3.172  0.00  0.00    -0.772 OA
HETATM   19  H   UNK N   1      12.944  -3.814   4.072  0.00  0.00     0.167 HD
ENDBRANCH  16  18
ENDBRANCH   8  16
TORSDOF 6
ENDMDL
MODEL 8
REMARK VINA RESULT:      -5.7      2.027      3.178
REMARK  6 active torsions:
REMARK  status: ('A' for Active; 'I' for Inactive)
REMARK    1  A    between atoms: C_2  and  O_3 
REMARK    2  A    between atoms: C_2  and  C_15 
REMARK    3  A    between atoms: O_3  and  C_4 
REMARK    4  A    between atoms: C_11  and  C_12 
REMARK    5  A    between atoms: C_12  and  O_14 
REMARK    6  A    between atoms: C_15  and  O_17 
ROOT
HETATM    1  C   UNK N   1      11.668  -3.194   3.553  0.00  0.00     0.088 A 
HETATM    2  C   UNK N   1      11.661  -1.944   4.185  0.00  0.00     0.041 A 
HETATM    3  C   UNK N   1      12.335  -0.864   3.625  0.00  0.00     0.047 A 
HETATM    4  C   UNK N   1      13.022  -1.011   2.424  0.00  0.00     0.139 A 
HETATM    5  F   UNK N   1      13.674   0.056   1.896  0.00  0.00    -0.204 F 
HETATM    6  C   UNK N   1      13.054  -2.251   1.770  0.00  0.00     0.092 A 
HETATM    7 Cl   UNK N   1      13.984  -2.348   0.271  0.00  0.00    -0.080 Cl
HETATM    8  C   UNK N   1      12.388  -3.375   2.337  0.00  0.00     0.095 A 
ENDROOT
BRANCH   1   9
HETATM    9  O   UNK N   1      10.969  -4.209   4.119  0.00  0.00    -0.335 OA
BRANCH   9  10
HETATM   10  C   UNK N   1       9.706  -4.028   4.668  0.00  0.00     0.222 C 
HETATM   11  C   UNK N   1       8.678  -4.774   3.821  0.00  0.00     0.051 C 
BRANCH  10  12
HETATM   12  C   UNK N   1       9.668  -4.525   6.090  0.00  0.00     0.170 C 
HETATM   13  O   UNK N   1       9.251  -5.647   6.335  0.00  0.00    -0.648 OA
BRANCH  12  14
HETATM   14  O   UNK N   1      10.094  -3.730   7.096  0.00  0.00    -0.774 OA
HETATM   15  H   UNK N   1      10.809  -4.007   7.685  0.00  0.00     0.167 HD
ENDBRANCH  12  14
ENDBRANCH  10  12
ENDBRANCH   9  10
ENDBRANCH   1   9
BRANCH   8  16
HETATM   16  C   UNK N   1      12.461  -4.732   1.703  0.00  0.00     0.180 C 
HETATM   17  O   UNK N   1      13.527  -5.324   1.609  0.00  0.00    -0.646 OA
BRANCH  16  18
HETATM   18  O   UNK N   1      11.336  -5.348   1.281  0.00  0.00    -0.772 OA
HETATM   19  H   UNK N   1      11.017  -6.160   1.700  0.00  0.00     0.167 HD
ENDBRANCH  16  18
ENDBRANCH   8  16
TORSDOF 6
ENDMDL
MODEL 9
REMARK VINA RESULT:      -5.5      3.492      4.695
REMARK  6 active torsions:
REMARK  status: ('A' for Active; 'I' for Inactive)
REMARK    1  A    between atoms: C_2  and  O_3 
REMARK    2  A    between atoms: C_2  and  C_15 
REMARK    3  A    between atoms: O_3  and  C_4 
REMARK    4  A    between atoms: C_11  and  C_12 
REMARK    5  A    between atoms: C_12  and  O_14 
REMARK    6  A    between atoms: C_15  and  O_17 
ROOT
HETATM    1  C   UNK N   1       8.915  -4.150   3.042  0.00  0.00     0.088 A 
HETATM    2  C   UNK N   1       8.884  -5.014   1.940  0.00  0.00     0.041 A 
HETATM    3  C   UNK N   1       9.137  -6.373   2.097  0.00  0.00     0.047 A 
HETATM    4  C   UNK N   1       9.419  -6.893   3.356  0.00  0.00     0.139 A 
HETATM    5  F   UNK N   1       9.663  -8.221   3.488  0.00  0.00    -0.204 F 
HETATM    6  C   UNK N   1       9.465  -6.054   4.479  0.00  0.00     0.092 A 
HETATM    7 Cl   UNK N   1       9.868  -6.801   6.028  0.00  0.00    -0.080 Cl
HETATM    8  C   UNK N   1       9.229  -4.656   4.336  0.00  0.00     0.095 A 
ENDROOT
BRANCH   1   9
HETATM    9  O   UNK N   1       8.630  -2.840   2.845  0.00  0.00    -0.335 OA
BRANCH   9  10
HETATM   10  C   UNK N   1       9.593  -1.920   2.448  0.00  0.00     0.222 C 
HETATM   11  C   UNK N   1       9.301  -1.472   1.018  0.00  0.00     0.051 C 
BRANCH  10  12
HETATM   12  C   UNK N   1       9.605  -0.731   3.373  0.00  0.00     0.170 C 
HETATM   13  O   UNK N   1       8.669   0.055   3.372  0.00  0.00    -0.648 OA
BRANCH  12  14
HETATM   14  O   UNK N   1      10.652  -0.531   4.203  0.00  0.00    -0.774 OA
HETATM   15  H   UNK N   1      10.726  -1.010   5.040  0.00  0.00     0.167 HD
ENDBRANCH  12  14
ENDBRANCH  10  12
ENDBRANCH   9  10
ENDBRANCH   1   9
BRANCH   8  16
HETATM   16  C   UNK N   1       9.341  -3.719   5.502  0.00  0.00     0.180 C 
HETATM   17  O   UNK N   1       8.403  -3.558   6.270  0.00  0.00    -0.646 OA
BRANCH  16  18
HETATM   18  O   UNK N   1      10.505  -3.083   5.754  0.00  0.00    -0.772 OA
HETATM   19  H   UNK N   1      11.182  -2.979   5.070  0.00  0.00     0.167 HD
ENDBRANCH  16  18
ENDBRANCH   8  16
TORSDOF 6
ENDMDL
