MODEL 1
REMARK VINA RESULT:      -6.5      0.000      0.000
REMARK  6 active torsions:
REMARK  status: ('A' for Active; 'I' for Inactive)
REMARK    1  A    between atoms: C_2  and  O_3 
REMARK    2  A    between atoms: C_2  and  C_4 
REMARK    3  A    between atoms: C_4  and  O_5 
REMARK    4  A    between atoms: O_5  and  C_6 
REMARK    5  A    between atoms: C_13  and  C_14 
REMARK    6  A    between atoms: C_14  and  O_16 
ROOT
HETATM    1  C   UNK N   1      10.920  -4.898   4.165  0.00  0.00     0.128 A 
HETATM    2  C   UNK N   1      11.575  -5.967   3.503  0.00  0.00     0.150 A 
HETATM    3  F   UNK N   1      12.267  -5.777   2.353  0.00  0.00    -0.203 F 
HETATM    4  C   UNK N   1      11.515  -7.258   4.027  0.00  0.00     0.048 A 
HETATM    5  C   UNK N   1      10.817  -7.510   5.203  0.00  0.00     0.046 A 
HETATM    6  C   UNK N   1      10.169  -6.475   5.875  0.00  0.00     0.136 A 
HETATM    7  F   UNK N   1       9.506  -6.766   7.022  0.00  0.00    -0.205 F 
HETATM    8  C   UNK N   1      10.210  -5.155   5.371  0.00  0.00     0.112 A 
ENDROOT
BRANCH   1   9
HETATM    9  O   UNK N   1      10.946  -3.623   3.683  0.00  0.00    -0.337 OA
BRANCH   9  10
HETATM   10  C   UNK N   1      12.000  -2.735   3.703  0.00  0.00     0.285 C 
BRANCH  10  11
HETATM   11  C   UNK N   1      11.553  -1.494   4.409  0.00  0.00     0.164 C 
HETATM   12  O   UNK N   1      10.513  -0.945   4.078  0.00  0.00    -0.648 OA
BRANCH  11  13
HETATM   13  O   UNK N   1      12.284  -1.002   5.431  0.00  0.00    -0.775 OA
HETATM   14  H   UNK N   1      12.319  -1.457   6.284  0.00  0.00     0.167 HD
ENDBRANCH  11  13
ENDBRANCH  10  11
ENDBRANCH   9  10
ENDBRANCH   1   9
BRANCH   8  15
HETATM   15  C   UNK N   1       9.514  -4.055   6.112  0.00  0.00     0.182 C 
HETATM   16  O   UNK N   1       8.425  -3.642   5.735  0.00  0.00    -0.646 OA
BRANCH  15  17
HETATM   17  O   UNK N   1      10.081  -3.501   7.205  0.00  0.00    -0.772 OA
HETATM   18  H   UNK N   1       9.721  -3.657   8.090  0.00  0.00     0.167 HD
ENDBRANCH  15  17
ENDBRANCH   8  15
TORSDOF 6
ENDMDL
MODEL 2
REMARK VINA RESULT:      -6.4      2.365      4.266
REMARK  6 active torsions:
REMARK  status: ('A' for Active; 'I' for Inactive)
REMARK    1  A    between atoms: C_2  and  O_3 
REMARK    2  A    between atoms: C_2  and  C_4 
REMARK    3  A    between atoms: C_4  and  O_5 
REMARK    4  A    between atoms: O_5  and  C_6 
REMARK    5  A    between atoms: C_13  and  C_14 
REMARK    6  A    between atoms: C_14  and  O_16 
ROOT
HETATM    1  C   UNK N   1      11.180  -4.938   4.128  0.00  0.00     0.128 A 
HETATM    2  C   UNK N   1      11.902  -4.874   2.910  0.00  0.00     0.150 A 
HETATM    3  F   UNK N   1      12.759  -5.856   2.536  0.00  0.00    -0.203 F 
HETATM    4  C   UNK N   1      11.748  -3.778   2.061  0.00  0.00     0.048 A 
HETATM    5  C   UNK N   1      10.885  -2.742   2.397  0.00  0.00     0.046 A 
HETATM    6  C   UNK N   1      10.160  -2.783   3.587  0.00  0.00     0.136 A 
HETATM    7  F   UNK N   1       9.324  -1.753   3.870  0.00  0.00    -0.205 F 
HETATM    8  C   UNK N   1      10.293  -3.879   4.470  0.00  0.00     0.112 A 
ENDROOT
BRANCH   1   9
HETATM    9  O   UNK N   1      11.307  -5.985   4.992  0.00  0.00    -0.337 OA
BRANCH   9  10
HETATM   10  C   UNK N   1      10.659  -7.201   4.943  0.00  0.00     0.285 C 
BRANCH  10  11
HETATM   11  C   UNK N   1      10.361  -7.629   6.345  0.00  0.00     0.164 C 
HETATM   12  O   UNK N   1      10.949  -8.585   6.829  0.00  0.00    -0.648 OA
BRANCH  11  13
HETATM   13  O   UNK N   1       9.468  -6.939   7.083  0.00  0.00    -0.775 OA
HETATM   14  H   UNK N   1       9.394  -7.080   8.038  0.00  0.00     0.167 HD
ENDBRANCH  11  13
ENDBRANCH  10  11
ENDBRANCH   9  10
ENDBRANCH   1   9
BRANCH   8  15
HETATM   15  C   UNK N   1       9.499  -3.910   5.740  0.00  0.00     0.182 C 
HETATM   16  O   UNK N   1       8.277  -3.971   5.709  0.00  0.00    -0.646 OA
BRANCH  15  17
HETATM   17  O   UNK N   1      10.121  -3.867   6.937  0.00  0.00    -0.772 OA
HETATM   18  H   UNK N   1      10.269  -4.671   7.455  0.00  0.00     0.167 HD
ENDBRANCH  15  17
ENDBRANCH   8  15
TORSDOF 6
ENDMDL
MODEL 3
REMARK VINA RESULT:      -6.4      2.418      4.085
REMARK  6 active torsions:
REMARK  status: ('A' for Active; 'I' for Inactive)
REMARK    1  A    between atoms: C_2  and  O_3 
REMARK    2  A    between atoms: C_2  and  C_4 
REMARK    3  A    between atoms: C_4  and  O_5 
REMARK    4  A    between atoms: O_5  and  C_6 
REMARK    5  A    between atoms: C_13  and  C_14 
REMARK    6  A    between atoms: C_14  and  O_16 
ROOT
HETATM    1  C   UNK N   1      10.335  -5.671   3.462  0.00  0.00     0.128 A 
HETATM    2  C   UNK N   1      11.735  -5.876   3.548  0.00  0.00     0.150 A 
HETATM    3  F   UNK N   1      12.311  -6.415   4.650  0.00  0.00    -0.203 F 
HETATM    4  C   UNK N   1      12.563  -5.516   2.484  0.00  0.00     0.048 A 
HETATM    5  C   UNK N   1      12.025  -4.957   1.331  0.00  0.00     0.046 A 
HETATM    6  C   UNK N   1      10.651  -4.749   1.220  0.00  0.00     0.136 A 
HETATM    7  F   UNK N   1      10.171  -4.207   0.073  0.00  0.00    -0.205 F 
HETATM    8  C   UNK N   1       9.785  -5.103   2.279  0.00  0.00     0.112 A 
ENDROOT
BRANCH   1   9
HETATM    9  O   UNK N   1       9.491  -5.999   4.481  0.00  0.00    -0.337 OA
BRANCH   9  10
HETATM   10  C   UNK N   1       9.687  -5.810   5.832  0.00  0.00     0.285 C 
BRANCH  10  11
HETATM   11  C   UNK N   1       9.327  -4.397   6.164  0.00  0.00     0.164 C 
HETATM   12  O   UNK N   1       8.279  -3.921   5.754  0.00  0.00    -0.648 OA
BRANCH  11  13
HETATM   13  O   UNK N   1      10.146  -3.660   6.944  0.00  0.00    -0.775 OA
HETATM   14  H   UNK N   1       9.920  -3.470   7.865  0.00  0.00     0.167 HD
ENDBRANCH  11  13
ENDBRANCH  10  11
ENDBRANCH   9  10
ENDBRANCH   1   9
BRANCH   8  15
HETATM   15  C   UNK N   1       8.310  -4.879   2.138  0.00  0.00     0.182 C 
HETATM   16  O   UNK N   1       7.690  -5.382   1.210  0.00  0.00    -0.646 OA
BRANCH  15  17
HETATM   17  O   UNK N   1       7.645  -4.117   3.032  0.00  0.00    -0.772 OA
HETATM   18  H   UNK N   1       8.105  -3.691   3.770  0.00  0.00     0.167 HD
ENDBRANCH  15  17
ENDBRANCH   8  15
TORSDOF 6
ENDMDL
MODEL 4
REMARK VINA RESULT:      -6.3      2.018      4.471
REMARK  6 active torsions:
REMARK  status: ('A' for Active; 'I' for Inactive)
REMARK    1  A    between atoms: C_2  and  O_3 
REMARK    2  A    between atoms: C_2  and  C_4 
REMARK    3  A    between atoms: C_4  and  O_5 
REMARK    4  A    between atoms: O_5  and  C_6 
REMARK    5  A    between atoms: C_13  and  C_14 
REMARK    6  A    between atoms: C_14  and  O_16 
ROOT
HETATM    1  C   UNK N   1      11.949  -3.695   3.452  0.00  0.00     0.128 A 
HETATM    2  C   UNK N   1      12.486  -4.585   2.489  0.00  0.00     0.150 A 
HETATM    3  F   UNK N   1      12.269  -5.922   2.553  0.00  0.00    -0.203 F 
HETATM    4  C   UNK N   1      13.264  -4.097   1.439  0.00  0.00     0.048 A 
HETATM    5  C   UNK N   1      13.519  -2.735   1.327  0.00  0.00     0.046 A 
HETATM    6  C   UNK N   1      12.999  -1.838   2.259  0.00  0.00     0.136 A 
HETATM    7  F   UNK N   1      13.268  -0.518   2.105  0.00  0.00    -0.205 F 
HETATM    8  C   UNK N   1      12.206  -2.301   3.334  0.00  0.00     0.112 A 
ENDROOT
BRANCH   1   9
HETATM    9  O   UNK N   1      11.191  -4.131   4.498  0.00  0.00    -0.337 OA
BRANCH   9  10
HETATM   10  C   UNK N   1       9.882  -4.564   4.468  0.00  0.00     0.285 C 
BRANCH  10  11
HETATM   11  C   UNK N   1       9.308  -4.418   5.841  0.00  0.00     0.164 C 
HETATM   12  O   UNK N   1       8.495  -3.535   6.072  0.00  0.00    -0.648 OA
BRANCH  11  13
HETATM   13  O   UNK N   1       9.665  -5.281   6.814  0.00  0.00    -0.775 OA
HETATM   14  H   UNK N   1      10.426  -5.103   7.385  0.00  0.00     0.167 HD
ENDBRANCH  11  13
ENDBRANCH  10  11
ENDBRANCH   9  10
ENDBRANCH   1   9
BRANCH   8  15
HETATM   15  C   UNK N   1      11.650  -1.322   4.321  0.00  0.00     0.182 C 
HETATM   16  O   UNK N   1      10.558  -0.801   4.134  0.00  0.00    -0.646 OA
BRANCH  15  17
HETATM   17  O   UNK N   1      12.347  -0.997   5.430  0.00  0.00    -0.772 OA
HETATM   18  H   UNK N   1      11.924  -0.973   6.301  0.00  0.00     0.167 HD
ENDBRANCH  15  17
ENDBRANCH   8  15
TORSDOF 6
ENDMDL
MODEL 5
REMARK VINA RESULT:      -6.0      1.484      1.847
REMARK  6 active torsions:
REMARK  status: ('A' for Active; 'I' for Inactive)
REMARK    1  A    between atoms: C_2  and  O_3 
REMARK    2  A    between atoms: C_2  and  C_4 
REMARK    3  A    between atoms: C_4  and  O_5 
REMARK    4  A    between atoms: O_5  and  C_6 
REMARK    5  A    between atoms: C_13  and  C_14 
REMARK    6  A    between atoms: C_14  and  O_16 
ROOT
HETATM    1  C   UNK N   1      11.215  -3.511   4.146  0.00  0.00     0.128 A 
HETATM    2  C   UNK N   1      12.096  -3.898   3.105  0.00  0.00     0.150 A 
HETATM    3  F   UNK N   1      12.839  -2.992   2.424  0.00  0.00    -0.203 F 
HETATM    4  C   UNK N   1      12.215  -5.242   2.752  0.00  0.00     0.048 A 
HETATM    5  C   UNK N   1      11.475  -6.214   3.416  0.00  0.00     0.046 A 
HETATM    6  C   UNK N   1      10.605  -5.859   4.446  0.00  0.00     0.136 A 
HETATM    7  F   UNK N   1       9.908  -6.841   5.070  0.00  0.00    -0.205 F 
HETATM    8  C   UNK N   1      10.461  -4.505   4.829  0.00  0.00     0.112 A 
ENDROOT
BRANCH   1   9
HETATM    9  O   UNK N   1      11.061  -2.208   4.517  0.00  0.00    -0.337 OA
BRANCH   9  10
HETATM   10  C   UNK N   1      10.514  -1.179   3.780  0.00  0.00     0.285 C 
BRANCH  10  11
HETATM   11  C   UNK N   1      11.309   0.060   4.042  0.00  0.00     0.164 C 
HETATM   12  O   UNK N   1      11.005   0.796   4.968  0.00  0.00    -0.648 OA
BRANCH  11  13
HETATM   13  O   UNK N   1      12.382   0.345   3.274  0.00  0.00    -0.775 OA
HETATM   14  H   UNK N   1      12.288   0.500   2.324  0.00  0.00     0.167 HD
ENDBRANCH  11  13
ENDBRANCH  10  11
ENDBRANCH   9  10
ENDBRANCH   1   9
BRANCH   8  15
HETATM   15  C   UNK N   1       9.527  -4.144   5.943  0.00  0.00     0.182 C 
HETATM   16  O   UNK N   1       8.315  -4.225   5.791  0.00  0.00    -0.646 OA
BRANCH  15  17
HETATM   17  O   UNK N   1      10.011  -3.722   7.130  0.00  0.00    -0.772 OA
HETATM   18  H   UNK N   1       9.466  -3.742   7.931  0.00  0.00     0.167 HD
ENDBRANCH  15  17
ENDBRANCH   8  15
TORSDOF 6
ENDMDL
MODEL 6
REMARK VINA RESULT:      -5.6      2.511      3.032
REMARK  6 active torsions:
REMARK  status: ('A' for Active; 'I' for Inactive)
REMARK    1  A    between atoms: C_2  and  O_3 
REMARK    2  A    between atoms: C_2  and  C_4 
REMARK    3  A    between atoms: C_4  and  O_5 
REMARK    4  A    between atoms: O_5  and  C_6 
REMARK    5  A    between atoms: C_13  and  C_14 
REMARK    6  A    between atoms: C_14  and  O_16 
ROOT
HETATM    1  C   UNK N   1       9.316  -2.796   3.102  0.00  0.00     0.128 A 
HETATM    2  C   UNK N   1       9.255  -2.876   1.688  0.00  0.00     0.150 A 
HETATM    3  F   UNK N   1       9.440  -1.786   0.902  0.00  0.00    -0.203 F 
HETATM    4  C   UNK N   1       8.993  -4.096   1.065  0.00  0.00     0.048 A 
HETATM    5  C   UNK N   1       8.793  -5.245   1.823  0.00  0.00     0.046 A 
HETATM    6  C   UNK N   1       8.852  -5.193   3.214  0.00  0.00     0.136 A 
HETATM    7  F   UNK N   1       8.657  -6.340   3.912  0.00  0.00    -0.205 F 
HETATM    8  C   UNK N   1       9.115  -3.972   3.876  0.00  0.00     0.112 A 
ENDROOT
BRANCH   1   9
HETATM    9  O   UNK N   1       9.559  -1.622   3.751  0.00  0.00    -0.337 OA
BRANCH   9  10
HETATM   10  C   UNK N   1      10.554  -0.704   3.488  0.00  0.00     0.285 C 
BRANCH  10  11
HETATM   11  C   UNK N   1      11.799  -1.150   4.186  0.00  0.00     0.164 C 
HETATM   12  O   UNK N   1      11.812  -1.258   5.403  0.00  0.00    -0.648 OA
BRANCH  11  13
HETATM   13  O   UNK N   1      12.897  -1.463   3.467  0.00  0.00    -0.775 OA
HETATM   14  H   UNK N   1      13.608  -0.821   3.335  0.00  0.00     0.167 HD
ENDBRANCH  11  13
ENDBRANCH  10  11
ENDBRANCH   9  10
ENDBRANCH   1   9
BRANCH   8  15
HETATM   15  C   UNK N   1       9.183  -3.938   5.372  0.00  0.00     0.182 C 
HETATM   16  O   UNK N   1       8.191  -4.184   6.046  0.00  0.00    -0.646 OA
BRANCH  15  17
HETATM   17  O   UNK N   1      10.339  -3.631   5.998  0.00  0.00    -0.772 OA
HETATM   18  H   UNK N   1      11.085  -3.245   5.515  0.00  0.00     0.167 HD
ENDBRANCH  15  17
ENDBRANCH   8  15
TORSDOF 6
ENDMDL
MODEL 7
REMARK VINA RESULT:      -5.4      2.412      4.537
REMARK  6 active torsions:
REMARK  status: ('A' for Active; 'I' for Inactive)
REMARK    1  A    between atoms: C_2  and  O_3 
REMARK    2  A    between atoms: C_2  and  C_4 
REMARK    3  A    between atoms: C_4  and  O_5 
REMARK    4  A    between atoms: O_5  and  C_6 
REMARK    5  A    between atoms: C_13  and  C_14 
REMARK    6  A    between atoms: C_14  and  O_16 
ROOT
HETATM    1  C   UNK N   1      10.984  -4.575   3.516  0.00  0.00     0.128 A 
HETATM    2  C   UNK N   1      12.004  -5.470   3.105  0.00  0.00     0.150 A 
HETATM    3  F   UNK N   1      12.329  -6.566   3.834  0.00  0.00    -0.203 F 
HETATM    4  C   UNK N   1      12.710  -5.234   1.925  0.00  0.00     0.048 A 
HETATM    5  C   UNK N   1      12.419  -4.123   1.140  0.00  0.00     0.046 A 
HETATM    6  C   UNK N   1      11.417  -3.232   1.520  0.00  0.00     0.136 A 
HETATM    7  F   UNK N   1      11.163  -2.166   0.720  0.00  0.00    -0.205 F 
HETATM    8  C   UNK N   1      10.683  -3.442   2.710  0.00  0.00     0.112 A 
ENDROOT
BRANCH   1   9
HETATM    9  O   UNK N   1      10.276  -4.763   4.666  0.00  0.00    -0.337 OA
BRANCH   9  10
HETATM   10  C   UNK N   1       9.145  -5.532   4.844  0.00  0.00     0.285 C 
BRANCH  10  11
HETATM   11  C   UNK N   1       9.520  -6.739   5.643  0.00  0.00     0.164 C 
HETATM   12  O   UNK N   1       9.849  -7.770   5.075  0.00  0.00    -0.648 OA
BRANCH  11  13
HETATM   13  O   UNK N   1       9.527  -6.677   6.991  0.00  0.00    -0.775 OA
HETATM   14  H   UNK N   1      10.025  -7.318   7.517  0.00  0.00     0.167 HD
ENDBRANCH  11  13
ENDBRANCH  10  11
ENDBRANCH   9  10
ENDBRANCH   1   9
BRANCH   8  15
HETATM   15  C   UNK N   1       9.605  -2.477   3.098  0.00  0.00     0.182 C 
HETATM   16  O   UNK N   1       8.687  -2.227   2.328  0.00  0.00    -0.646 OA
BRANCH  15  17
HETATM   17  O   UNK N   1       9.633  -1.867   4.301  0.00  0.00    -0.772 OA
HETATM   18  H   UNK N   1      10.354  -1.268   4.545  0.00  0.00     0.167 HD
ENDBRANCH  15  17
ENDBRANCH   8  15
TORSDOF 6
ENDMDL
MODEL 8
REMARK VINA RESULT:      -5.3      1.949      2.455
REMARK  6 active torsions:
REMARK  status: ('A' for Active; 'I' for Inactive)
REMARK    1  A    between atoms: C_2  and  O_3 
REMARK    2  A    between atoms: C_2  and  C_4 
REMARK    3  A    between atoms: C_4  and  O_5 
REMARK    4  A    between atoms: O_5  and  C_6 
REMARK    5  A    between atoms: C_13  and  C_14 
REMARK    6  A    between atoms: C_14  and  O_16 
ROOT
HETATM    1  C   UNK N   1      10.832  -4.394   3.529  0.00  0.00     0.128 A 
HETATM    2  C   UNK N   1      12.033  -5.097   3.262  0.00  0.00     0.150 A 
HETATM    3  F   UNK N   1      12.937  -4.649   2.356  0.00  0.00    -0.203 F 
HETATM    4  C   UNK N   1      12.314  -6.287   3.935  0.00  0.00     0.048 A 
HETATM    5  C   UNK N   1      11.421  -6.793   4.873  0.00  0.00     0.046 A 
HETATM    6  C   UNK N   1      10.235  -6.118   5.156  0.00  0.00     0.136 A 
HETATM    7  F   UNK N   1       9.397  -6.645   6.084  0.00  0.00    -0.205 F 
HETATM    8  C   UNK N   1       9.921  -4.910   4.492  0.00  0.00     0.112 A 
ENDROOT
BRANCH   1   9
HETATM    9  O   UNK N   1      10.514  -3.233   2.888  0.00  0.00    -0.337 OA
BRANCH   9  10
HETATM   10  C   UNK N   1      10.162  -3.069   1.566  0.00  0.00     0.285 C 
BRANCH  10  11
HETATM   11  C   UNK N   1       9.150  -1.972   1.483  0.00  0.00     0.164 C 
HETATM   12  O   UNK N   1       8.578  -1.591   2.494  0.00  0.00    -0.648 OA
BRANCH  11  13
HETATM   13  O   UNK N   1       8.893  -1.381   0.297  0.00  0.00    -0.775 OA
HETATM   14  H   UNK N   1       9.584  -0.903  -0.182  0.00  0.00     0.167 HD
ENDBRANCH  11  13
ENDBRANCH  10  11
ENDBRANCH   9  10
ENDBRANCH   1   9
BRANCH   8  15
HETATM   15  C   UNK N   1       8.645  -4.195   4.816  0.00  0.00     0.182 C 
HETATM   16  O   UNK N   1       8.502  -3.633   5.894  0.00  0.00    -0.646 OA
BRANCH  15  17
HETATM   17  O   UNK N   1       7.633  -4.163   3.923  0.00  0.00    -0.772 OA
HETATM   18  H   UNK N   1       7.745  -4.505   3.024  0.00  0.00     0.167 HD
ENDBRANCH  15  17
ENDBRANCH   8  15
TORSDOF 6
ENDMDL
MODEL 9
REMARK VINA RESULT:      -5.3      2.283      3.109
REMARK  6 active torsions:
REMARK  status: ('A' for Active; 'I' for Inactive)
REMARK    1  A    between atoms: C_2  and  O_3 
REMARK    2  A    between atoms: C_2  and  C_4 
REMARK    3  A    between atoms: C_4  and  O_5 
REMARK    4  A    between atoms: O_5  and  C_6 
REMARK    5  A    between atoms: C_13  and  C_14 
REMARK    6  A    between atoms: C_14  and  O_16 
ROOT
HETATM    1  C   UNK N   1      12.219  -2.741   2.905  0.00  0.00     0.128 A 
HETATM    2  C   UNK N   1      13.103  -3.238   1.914  0.00  0.00     0.150 A 
HETATM    3  F   UNK N   1      14.077  -2.465   1.374  0.00  0.00    -0.203 F 
HETATM    4  C   UNK N   1      12.983  -4.553   1.463  0.00  0.00     0.048 A 
HETATM    5  C   UNK N   1      12.000  -5.388   1.982  0.00  0.00     0.046 A 
HETATM    6  C   UNK N   1      11.122  -4.925   2.960  0.00  0.00     0.136 A 
HETATM    7  F   UNK N   1      10.184  -5.778   3.442  0.00  0.00    -0.205 F 
HETATM    8  C   UNK N   1      11.217  -3.598   3.438  0.00  0.00     0.112 A 
ENDROOT
BRANCH   1   9
HETATM    9  O   UNK N   1      12.296  -1.461   3.367  0.00  0.00    -0.337 OA
BRANCH   9  10
HETATM   10  C   UNK N   1      11.967  -0.301   2.697  0.00  0.00     0.285 C 
BRANCH  10  11
HETATM   11  C   UNK N   1      11.395   0.664   3.684  0.00  0.00     0.164 C 
HETATM   12  O   UNK N   1      10.958   0.259   4.751  0.00  0.00    -0.648 OA
BRANCH  11  13
HETATM   13  O   UNK N   1      11.391   1.985   3.408  0.00  0.00    -0.775 OA
HETATM   14  H   UNK N   1      12.218   2.470   3.277  0.00  0.00     0.167 HD
ENDBRANCH  11  13
ENDBRANCH  10  11
ENDBRANCH   9  10
ENDBRANCH   1   9
BRANCH   8  15
HETATM   15  C   UNK N   1      10.269  -3.120   4.496  0.00  0.00     0.182 C 
HETATM   16  O   UNK N   1      10.330  -3.567   5.634  0.00  0.00    -0.646 OA
BRANCH  15  17
HETATM   17  O   UNK N   1       9.332  -2.193   4.207  0.00  0.00    -0.772 OA
HETATM   18  H   UNK N   1       9.319  -1.742   3.350  0.00  0.00     0.167 HD
ENDBRANCH  15  17
ENDBRANCH   8  15
TORSDOF 6
ENDMDL
