MODEL 1
REMARK VINA RESULT:      -6.4      0.000      0.000
REMARK  6 active torsions:
REMARK  status: ('A' for Active; 'I' for Inactive)
REMARK    1  A    between atoms: C_2  and  O_3 
REMARK    2  A    between atoms: C_2  and  C_4 
REMARK    3  A    between atoms: C_4  and  O_5 
REMARK    4  A    between atoms: O_5  and  C_6 
REMARK    5  A    between atoms: C_13  and  C_14 
REMARK    6  A    between atoms: C_14  and  O_16 
ROOT
HETATM    1  C   UNK N   1      10.916  -4.894   4.133  0.00  0.00     0.128 A 
HETATM    2  C   UNK N   1      11.603  -5.941   3.496  0.00  0.00     0.150 A 
HETATM    3  F   UNK N   1      12.287  -5.706   2.349  0.00  0.00    -0.203 F 
HETATM    4  C   UNK N   1      11.576  -7.230   4.027  0.00  0.00     0.048 A 
HETATM    5  C   UNK N   1      10.865  -7.491   5.196  0.00  0.00     0.046 A 
HETATM    6  C   UNK N   1      10.187  -6.462   5.854  0.00  0.00     0.136 A 
HETATM    7  F   UNK N   1       9.519  -6.756   7.000  0.00  0.00    -0.205 F 
HETATM    8  C   UNK N   1      10.210  -5.145   5.343  0.00  0.00     0.112 A 
ENDROOT
BRANCH   1   9
HETATM    9  O   UNK N   1      10.914  -3.664   3.564  0.00  0.00    -0.337 OA
BRANCH   9  10
HETATM   10  C   UNK N   1      11.989  -2.803   3.724  0.00  0.00     0.285 C 
BRANCH  10  11
HETATM   11  C   UNK N   1      11.553  -1.532   4.390  0.00  0.00     0.164 C 
HETATM   12  O   UNK N   1      10.528  -0.973   4.025  0.00  0.00    -0.648 OA
BRANCH  11  13
HETATM   13  O   UNK N   1      12.277  -1.021   5.407  0.00  0.00    -0.775 OA
HETATM   14  H   UNK N   1      12.072  -1.242   6.327  0.00  0.00     0.167 HD
ENDBRANCH  11  13
ENDBRANCH  10  11
ENDBRANCH   9  10
ENDBRANCH   1   9
BRANCH   8  15
HETATM   15  C   UNK N   1       9.521  -4.040   6.082  0.00  0.00     0.182 C 
HETATM   16  O   UNK N   1       8.430  -3.634   5.706  0.00  0.00    -0.646 OA
BRANCH  15  17
HETATM   17  O   UNK N   1      10.066  -3.511   7.198  0.00  0.00    -0.772 OA
HETATM   18  H   UNK N   1      10.259  -2.566   7.266  0.00  0.00     0.167 HD
ENDBRANCH  15  17
ENDBRANCH   8  15
TORSDOF 6
ENDMDL
MODEL 2
REMARK VINA RESULT:      -6.3      2.395      4.263
REMARK  6 active torsions:
REMARK  status: ('A' for Active; 'I' for Inactive)
REMARK    1  A    between atoms: C_2  and  O_3 
REMARK    2  A    between atoms: C_2  and  C_4 
REMARK    3  A    between atoms: C_4  and  O_5 
REMARK    4  A    between atoms: O_5  and  C_6 
REMARK    5  A    between atoms: C_13  and  C_14 
REMARK    6  A    between atoms: C_14  and  O_16 
ROOT
HETATM    1  C   UNK N   1      11.160  -4.909   4.110  0.00  0.00     0.128 A 
HETATM    2  C   UNK N   1      11.853  -4.859   2.890  0.00  0.00     0.150 A 
HETATM    3  F   UNK N   1      12.675  -5.877   2.532  0.00  0.00    -0.203 F 
HETATM    4  C   UNK N   1      11.716  -3.759   2.044  0.00  0.00     0.048 A 
HETATM    5  C   UNK N   1      10.888  -2.698   2.404  0.00  0.00     0.046 A 
HETATM    6  C   UNK N   1      10.177  -2.733   3.606  0.00  0.00     0.136 A 
HETATM    7  F   UNK N   1       9.369  -1.686   3.912  0.00  0.00    -0.205 F 
HETATM    8  C   UNK N   1      10.290  -3.843   4.474  0.00  0.00     0.112 A 
ENDROOT
BRANCH   1   9
HETATM    9  O   UNK N   1      11.356  -5.964   4.938  0.00  0.00    -0.337 OA
BRANCH   9  10
HETATM   10  C   UNK N   1      10.626  -7.133   4.786  0.00  0.00     0.285 C 
BRANCH  10  11
HETATM   11  C   UNK N   1      10.269  -7.710   6.124  0.00  0.00     0.164 C 
HETATM   12  O   UNK N   1      10.640  -8.836   6.422  0.00  0.00    -0.648 OA
BRANCH  11  13
HETATM   13  O   UNK N   1       9.562  -6.975   7.007  0.00  0.00    -0.775 OA
HETATM   14  H   UNK N   1       8.720  -6.569   6.758  0.00  0.00     0.167 HD
ENDBRANCH  11  13
ENDBRANCH  10  11
ENDBRANCH   9  10
ENDBRANCH   1   9
BRANCH   8  15
HETATM   15  C   UNK N   1       9.487  -3.893   5.737  0.00  0.00     0.182 C 
HETATM   16  O   UNK N   1       8.268  -3.982   5.689  0.00  0.00    -0.646 OA
BRANCH  15  17
HETATM   17  O   UNK N   1      10.097  -3.893   6.942  0.00  0.00    -0.772 OA
HETATM   18  H   UNK N   1       9.590  -3.953   7.763  0.00  0.00     0.167 HD
ENDBRANCH  15  17
ENDBRANCH   8  15
TORSDOF 6
ENDMDL
MODEL 3
REMARK VINA RESULT:      -6.2      4.732      6.150
REMARK  6 active torsions:
REMARK  status: ('A' for Active; 'I' for Inactive)
REMARK    1  A    between atoms: C_2  and  O_3 
REMARK    2  A    between atoms: C_2  and  C_4 
REMARK    3  A    between atoms: C_4  and  O_5 
REMARK    4  A    between atoms: O_5  and  C_6 
REMARK    5  A    between atoms: C_13  and  C_14 
REMARK    6  A    between atoms: C_14  and  O_16 
ROOT
HETATM    1  C   UNK N   1      10.946 -10.559   5.928  0.00  0.00     0.128 A 
HETATM    2  C   UNK N   1      11.501 -11.352   4.911  0.00  0.00     0.150 A 
HETATM    3  F   UNK N   1      11.064 -11.225   3.634  0.00  0.00    -0.203 F 
HETATM    4  C   UNK N   1      12.494 -12.286   5.206  0.00  0.00     0.048 A 
HETATM    5  C   UNK N   1      12.943 -12.440   6.516  0.00  0.00     0.046 A 
HETATM    6  C   UNK N   1      12.416 -11.651   7.541  0.00  0.00     0.136 A 
HETATM    7  F   UNK N   1      12.892 -11.822   8.801  0.00  0.00    -0.205 F 
HETATM    8  C   UNK N   1      11.418 -10.689   7.265  0.00  0.00     0.112 A 
ENDROOT
BRANCH   1   9
HETATM    9  O   UNK N   1       9.944  -9.699   5.622  0.00  0.00    -0.337 OA
BRANCH   9  10
HETATM   10  C   UNK N   1      10.207  -8.497   4.983  0.00  0.00     0.285 C 
BRANCH  10  11
HETATM   11  C   UNK N   1      10.481  -7.415   5.987  0.00  0.00     0.164 C 
HETATM   12  O   UNK N   1      11.583  -6.887   6.029  0.00  0.00    -0.648 OA
BRANCH  11  13
HETATM   13  O   UNK N   1       9.503  -7.009   6.823  0.00  0.00    -0.775 OA
HETATM   14  H   UNK N   1       8.587  -6.931   6.520  0.00  0.00     0.167 HD
ENDBRANCH  11  13
ENDBRANCH  10  11
ENDBRANCH   9  10
ENDBRANCH   1   9
BRANCH   8  15
HETATM   15  C   UNK N   1      10.893  -9.814   8.361  0.00  0.00     0.182 C 
HETATM   16  O   UNK N   1      11.667  -9.200   9.083  0.00  0.00    -0.646 OA
BRANCH  15  17
HETATM   17  O   UNK N   1       9.565  -9.651   8.537  0.00  0.00    -0.772 OA
HETATM   18  H   UNK N   1       8.996 -10.390   8.793  0.00  0.00     0.167 HD
ENDBRANCH  15  17
ENDBRANCH   8  15
TORSDOF 6
ENDMDL
MODEL 4
REMARK VINA RESULT:      -6.2      1.926      4.465
REMARK  6 active torsions:
REMARK  status: ('A' for Active; 'I' for Inactive)
REMARK    1  A    between atoms: C_2  and  O_3 
REMARK    2  A    between atoms: C_2  and  C_4 
REMARK    3  A    between atoms: C_4  and  O_5 
REMARK    4  A    between atoms: O_5  and  C_6 
REMARK    5  A    between atoms: C_13  and  C_14 
REMARK    6  A    between atoms: C_14  and  O_16 
ROOT
HETATM    1  C   UNK N   1      11.969  -3.836   3.457  0.00  0.00     0.128 A 
HETATM    2  C   UNK N   1      12.379  -4.889   2.623  0.00  0.00     0.150 A 
HETATM    3  F   UNK N   1      12.044  -6.167   2.926  0.00  0.00    -0.203 F 
HETATM    4  C   UNK N   1      13.147  -4.632   1.487  0.00  0.00     0.048 A 
HETATM    5  C   UNK N   1      13.513  -3.326   1.171  0.00  0.00     0.046 A 
HETATM    6  C   UNK N   1      13.103  -2.262   1.977  0.00  0.00     0.136 A 
HETATM    7  F   UNK N   1      13.469  -1.003   1.624  0.00  0.00    -0.205 F 
HETATM    8  C   UNK N   1      12.314  -2.495   3.126  0.00  0.00     0.112 A 
ENDROOT
BRANCH   1   9
HETATM    9  O   UNK N   1      11.271  -4.120   4.583  0.00  0.00    -0.337 OA
BRANCH   9  10
HETATM   10  C   UNK N   1       9.922  -4.438   4.525  0.00  0.00     0.285 C 
BRANCH  10  11
HETATM   11  C   UNK N   1       9.334  -4.496   5.904  0.00  0.00     0.164 C 
HETATM   12  O   UNK N   1       8.501  -3.668   6.248  0.00  0.00    -0.648 OA
BRANCH  11  13
HETATM   13  O   UNK N   1       9.704  -5.476   6.754  0.00  0.00    -0.775 OA
HETATM   14  H   UNK N   1       9.132  -6.240   6.916  0.00  0.00     0.167 HD
ENDBRANCH  11  13
ENDBRANCH  10  11
ENDBRANCH   9  10
ENDBRANCH   1   9
BRANCH   8  15
HETATM   15  C   UNK N   1      11.838  -1.344   3.958  0.00  0.00     0.182 C 
HETATM   16  O   UNK N   1      11.053  -0.530   3.491  0.00  0.00    -0.646 OA
BRANCH  15  17
HETATM   17  O   UNK N   1      12.227  -1.216   5.244  0.00  0.00    -0.772 OA
HETATM   18  H   UNK N   1      11.849  -1.769   5.942  0.00  0.00     0.167 HD
ENDBRANCH  15  17
ENDBRANCH   8  15
TORSDOF 6
ENDMDL
MODEL 5
REMARK VINA RESULT:      -6.2      2.373      4.027
REMARK  6 active torsions:
REMARK  status: ('A' for Active; 'I' for Inactive)
REMARK    1  A    between atoms: C_2  and  O_3 
REMARK    2  A    between atoms: C_2  and  C_4 
REMARK    3  A    between atoms: C_4  and  O_5 
REMARK    4  A    between atoms: O_5  and  C_6 
REMARK    5  A    between atoms: C_13  and  C_14 
REMARK    6  A    between atoms: C_14  and  O_16 
ROOT
HETATM    1  C   UNK N   1      10.223  -5.702   3.498  0.00  0.00     0.128 A 
HETATM    2  C   UNK N   1      11.598  -5.965   3.619  0.00  0.00     0.150 A 
HETATM    3  F   UNK N   1      12.080  -6.561   4.738  0.00  0.00    -0.203 F 
HETATM    4  C   UNK N   1      12.479  -5.602   2.601  0.00  0.00     0.048 A 
HETATM    5  C   UNK N   1      12.001  -4.974   1.453  0.00  0.00     0.046 A 
HETATM    6  C   UNK N   1      10.637  -4.718   1.304  0.00  0.00     0.136 A 
HETATM    7  F   UNK N   1      10.211  -4.118   0.162  0.00  0.00    -0.205 F 
HETATM    8  C   UNK N   1       9.722  -5.087   2.316  0.00  0.00     0.112 A 
ENDROOT
BRANCH   1   9
HETATM    9  O   UNK N   1       9.398  -6.015   4.527  0.00  0.00    -0.337 OA
BRANCH   9  10
HETATM   10  C   UNK N   1       9.743  -5.709   5.834  0.00  0.00     0.285 C 
BRANCH  10  11
HETATM   11  C   UNK N   1       9.395  -4.285   6.153  0.00  0.00     0.164 C 
HETATM   12  O   UNK N   1       8.427  -3.760   5.621  0.00  0.00    -0.648 OA
BRANCH  11  13
HETATM   13  O   UNK N   1      10.133  -3.595   7.048  0.00  0.00    -0.775 OA
HETATM   14  H   UNK N   1      10.764  -2.920   6.759  0.00  0.00     0.167 HD
ENDBRANCH  11  13
ENDBRANCH  10  11
ENDBRANCH   9  10
ENDBRANCH   1   9
BRANCH   8  15
HETATM   15  C   UNK N   1       8.255  -4.851   2.127  0.00  0.00     0.182 C 
HETATM   16  O   UNK N   1       7.674  -5.330   1.163  0.00  0.00    -0.646 OA
BRANCH  15  17
HETATM   17  O   UNK N   1       7.546  -4.153   3.038  0.00  0.00    -0.772 OA
HETATM   18  H   UNK N   1       7.977  -3.716   3.786  0.00  0.00     0.167 HD
ENDBRANCH  15  17
ENDBRANCH   8  15
TORSDOF 6
ENDMDL
MODEL 6
REMARK VINA RESULT:      -6.0      1.566      2.015
REMARK  6 active torsions:
REMARK  status: ('A' for Active; 'I' for Inactive)
REMARK    1  A    between atoms: C_2  and  O_3 
REMARK    2  A    between atoms: C_2  and  C_4 
REMARK    3  A    between atoms: C_4  and  O_5 
REMARK    4  A    between atoms: O_5  and  C_6 
REMARK    5  A    between atoms: C_13  and  C_14 
REMARK    6  A    between atoms: C_14  and  O_16 
ROOT
HETATM    1  C   UNK N   1      11.189  -3.373   4.131  0.00  0.00     0.128 A 
HETATM    2  C   UNK N   1      12.051  -3.724   3.079  0.00  0.00     0.150 A 
HETATM    3  F   UNK N   1      12.887  -2.798   2.546  0.00  0.00    -0.203 F 
HETATM    4  C   UNK N   1      12.044  -5.019   2.563  0.00  0.00     0.048 A 
HETATM    5  C   UNK N   1      11.180  -5.978   3.088  0.00  0.00     0.046 A 
HETATM    6  C   UNK N   1      10.326  -5.655   4.144  0.00  0.00     0.136 A 
HETATM    7  F   UNK N   1       9.511  -6.624   4.637  0.00  0.00    -0.205 F 
HETATM    8  C   UNK N   1      10.323  -4.353   4.693  0.00  0.00     0.112 A 
ENDROOT
BRANCH   1   9
HETATM    9  O   UNK N   1      11.177  -2.093   4.575  0.00  0.00    -0.337 OA
BRANCH   9  10
HETATM   10  C   UNK N   1      10.609  -1.081   3.815  0.00  0.00     0.285 C 
BRANCH  10  11
HETATM   11  C   UNK N   1      11.291   0.228   4.086  0.00  0.00     0.164 C 
HETATM   12  O   UNK N   1      10.956   0.903   5.049  0.00  0.00    -0.648 OA
BRANCH  11  13
HETATM   13  O   UNK N   1      12.291   0.645   3.282  0.00  0.00    -0.775 OA
HETATM   14  H   UNK N   1      12.134   1.302   2.588  0.00  0.00     0.167 HD
ENDBRANCH  11  13
ENDBRANCH  10  11
ENDBRANCH   9  10
ENDBRANCH   1   9
BRANCH   8  15
HETATM   15  C   UNK N   1       9.438  -4.030   5.857  0.00  0.00     0.182 C 
HETATM   16  O   UNK N   1       8.221  -4.046   5.729  0.00  0.00    -0.646 OA
BRANCH  15  17
HETATM   17  O   UNK N   1       9.965  -3.767   7.071  0.00  0.00    -0.772 OA
HETATM   18  H   UNK N   1       9.761  -2.948   7.543  0.00  0.00     0.167 HD
ENDBRANCH  15  17
ENDBRANCH   8  15
TORSDOF 6
ENDMDL
MODEL 7
REMARK VINA RESULT:      -5.9      2.018      4.562
REMARK  6 active torsions:
REMARK  status: ('A' for Active; 'I' for Inactive)
REMARK    1  A    between atoms: C_2  and  O_3 
REMARK    2  A    between atoms: C_2  and  C_4 
REMARK    3  A    between atoms: C_4  and  O_5 
REMARK    4  A    between atoms: O_5  and  C_6 
REMARK    5  A    between atoms: C_13  and  C_14 
REMARK    6  A    between atoms: C_14  and  O_16 
ROOT
HETATM    1  C   UNK N   1      11.578  -4.355   3.835  0.00  0.00     0.128 A 
HETATM    2  C   UNK N   1      12.046  -5.418   3.045  0.00  0.00     0.150 A 
HETATM    3  F   UNK N   1      11.811  -6.700   3.420  0.00  0.00    -0.203 F 
HETATM    4  C   UNK N   1      12.768  -5.166   1.878  0.00  0.00     0.048 A 
HETATM    5  C   UNK N   1      13.031  -3.855   1.487  0.00  0.00     0.046 A 
HETATM    6  C   UNK N   1      12.562  -2.784   2.249  0.00  0.00     0.136 A 
HETATM    7  F   UNK N   1      12.828  -1.521   1.824  0.00  0.00    -0.205 F 
HETATM    8  C   UNK N   1      11.817  -3.012   3.428  0.00  0.00     0.112 A 
ENDROOT
BRANCH   1   9
HETATM    9  O   UNK N   1      10.928  -4.630   4.992  0.00  0.00    -0.337 OA
BRANCH   9  10
HETATM   10  C   UNK N   1       9.608  -5.056   4.984  0.00  0.00     0.285 C 
BRANCH  10  11
HETATM   11  C   UNK N   1       9.460  -6.331   5.760  0.00  0.00     0.164 C 
HETATM   12  O   UNK N   1       9.592  -6.325   6.975  0.00  0.00    -0.648 OA
BRANCH  11  13
HETATM   13  O   UNK N   1       9.156  -7.479   5.118  0.00  0.00    -0.775 OA
HETATM   14  H   UNK N   1       9.353  -7.593   4.177  0.00  0.00     0.167 HD
ENDBRANCH  11  13
ENDBRANCH  10  11
ENDBRANCH   9  10
ENDBRANCH   1   9
BRANCH   8  15
HETATM   15  C   UNK N   1      11.277  -1.857   4.213  0.00  0.00     0.182 C 
HETATM   16  O   UNK N   1      11.968  -1.313   5.064  0.00  0.00    -0.646 OA
BRANCH  15  17
HETATM   17  O   UNK N   1      10.046  -1.367   3.959  0.00  0.00    -0.772 OA
HETATM   18  H   UNK N   1       9.728  -1.244   3.053  0.00  0.00     0.167 HD
ENDBRANCH  15  17
ENDBRANCH   8  15
TORSDOF 6
ENDMDL
MODEL 8
REMARK VINA RESULT:      -5.8      2.714      4.936
REMARK  6 active torsions:
REMARK  status: ('A' for Active; 'I' for Inactive)
REMARK    1  A    between atoms: C_2  and  O_3 
REMARK    2  A    between atoms: C_2  and  C_4 
REMARK    3  A    between atoms: C_4  and  O_5 
REMARK    4  A    between atoms: O_5  and  C_6 
REMARK    5  A    between atoms: C_13  and  C_14 
REMARK    6  A    between atoms: C_14  and  O_16 
ROOT
HETATM    1  C   UNK N   1      10.126  -4.735   2.932  0.00  0.00     0.128 A 
HETATM    2  C   UNK N   1       8.762  -4.921   2.653  0.00  0.00     0.150 A 
HETATM    3  F   UNK N   1       7.857  -4.933   3.663  0.00  0.00    -0.203 F 
HETATM    4  C   UNK N   1       8.329  -5.109   1.341  0.00  0.00     0.048 A 
HETATM    5  C   UNK N   1       9.248  -5.116   0.294  0.00  0.00     0.046 A 
HETATM    6  C   UNK N   1      10.607  -4.917   0.547  0.00  0.00     0.136 A 
HETATM    7  F   UNK N   1      11.467  -4.915  -0.504  0.00  0.00    -0.205 F 
HETATM    8  C   UNK N   1      11.069  -4.711   1.866  0.00  0.00     0.112 A 
ENDROOT
BRANCH   1   9
HETATM    9  O   UNK N   1      10.525  -4.610   4.221  0.00  0.00    -0.337 OA
BRANCH   9  10
HETATM   10  C   UNK N   1      10.734  -5.729   5.014  0.00  0.00     0.285 C 
BRANCH  10  11
HETATM   11  C   UNK N   1      10.062  -5.565   6.345  0.00  0.00     0.164 C 
HETATM   12  O   UNK N   1      10.086  -4.482   6.912  0.00  0.00    -0.648 OA
BRANCH  11  13
HETATM   13  O   UNK N   1       9.409  -6.606   6.902  0.00  0.00    -0.775 OA
HETATM   14  H   UNK N   1       9.767  -7.504   6.856  0.00  0.00     0.167 HD
ENDBRANCH  11  13
ENDBRANCH  10  11
ENDBRANCH   9  10
ENDBRANCH   1   9
BRANCH   8  15
HETATM   15  C   UNK N   1      12.522  -4.451   2.121  0.00  0.00     0.182 C 
HETATM   16  O   UNK N   1      13.360  -5.291   1.821  0.00  0.00    -0.646 OA
BRANCH  15  17
HETATM   17  O   UNK N   1      12.931  -3.273   2.637  0.00  0.00    -0.772 OA
HETATM   18  H   UNK N   1      13.807  -2.913   2.439  0.00  0.00     0.167 HD
ENDBRANCH  15  17
ENDBRANCH   8  15
TORSDOF 6
ENDMDL
MODEL 9
REMARK VINA RESULT:      -5.6      2.071      4.279
REMARK  6 active torsions:
REMARK  status: ('A' for Active; 'I' for Inactive)
REMARK    1  A    between atoms: C_2  and  O_3 
REMARK    2  A    between atoms: C_2  and  C_4 
REMARK    3  A    between atoms: C_4  and  O_5 
REMARK    4  A    between atoms: O_5  and  C_6 
REMARK    5  A    between atoms: C_13  and  C_14 
REMARK    6  A    between atoms: C_14  and  O_16 
ROOT
HETATM    1  C   UNK N   1      11.310  -3.864   3.095  0.00  0.00     0.128 A 
HETATM    2  C   UNK N   1      11.637  -4.887   2.190  0.00  0.00     0.150 A 
HETATM    3  F   UNK N   1      11.986  -6.115   2.648  0.00  0.00    -0.203 F 
HETATM    4  C   UNK N   1      11.621  -4.647   0.817  0.00  0.00     0.048 A 
HETATM    5  C   UNK N   1      11.280  -3.386   0.331  0.00  0.00     0.046 A 
HETATM    6  C   UNK N   1      10.936  -2.359   1.212  0.00  0.00     0.136 A 
HETATM    7  F   UNK N   1      10.595  -1.150   0.696  0.00  0.00    -0.205 F 
HETATM    8  C   UNK N   1      10.932  -2.581   2.607  0.00  0.00     0.112 A 
ENDROOT
BRANCH   1   9
HETATM    9  O   UNK N   1      11.388  -4.110   4.426  0.00  0.00    -0.337 OA
BRANCH   9  10
HETATM   10  C   UNK N   1      10.459  -4.926   5.055  0.00  0.00     0.285 C 
BRANCH  10  11
HETATM   11  C   UNK N   1       9.551  -4.115   5.930  0.00  0.00     0.164 C 
HETATM   12  O   UNK N   1       8.433  -3.814   5.537  0.00  0.00    -0.648 OA
BRANCH  11  13
HETATM   13  O   UNK N   1       9.958  -3.741   7.161  0.00  0.00    -0.775 OA
HETATM   14  H   UNK N   1       9.347  -3.740   7.911  0.00  0.00     0.167 HD
ENDBRANCH  11  13
ENDBRANCH  10  11
ENDBRANCH   9  10
ENDBRANCH   1   9
BRANCH   8  15
HETATM   15  C   UNK N   1      10.516  -1.488   3.542  0.00  0.00     0.182 C 
HETATM   16  O   UNK N   1      11.340  -0.686   3.959  0.00  0.00    -0.646 OA
BRANCH  15  17
HETATM   17  O   UNK N   1       9.222  -1.339   3.896  0.00  0.00    -0.772 OA
HETATM   18  H   UNK N   1       8.508  -1.725   3.370  0.00  0.00     0.167 HD
ENDBRANCH  15  17
ENDBRANCH   8  15
TORSDOF 6
ENDMDL
