Molecule_16
     RDKit          3D

 26 27  0  0  0  0  0  0  0  0999 V2000
   -2.2867    2.7648   -0.6036 O   0  0  0  0  0  0  0  0  0  0  0  0
   -1.7643    1.7203   -1.0776 C   0  0  0  0  0  0  0  0  0  0  0  0
   -1.2695    1.7282   -2.3785 O   0  0  0  0  0  0  0  0  0  0  0  0
   -1.7546    0.4771   -0.2811 C   0  0  0  0  0  0  0  0  0  0  0  0
   -2.9693    0.0652    0.2926 C   0  0  0  0  0  0  0  0  0  0  0  0
   -3.0467   -1.1156    1.0281 C   0  0  0  0  0  0  0  0  0  0  0  0
   -1.9106   -1.8984    1.2134 C   0  0  0  0  0  0  0  0  0  0  0  0
   -1.9922   -3.0417    1.9383 F   0  0  0  0  0  0  0  0  0  0  0  0
   -0.6862   -1.4995    0.6724 C   0  0  0  0  0  0  0  0  0  0  0  0
    0.4089   -2.2647    0.9153 F   0  0  0  0  0  0  0  0  0  0  0  0
   -0.5838   -0.3095   -0.0857 C   0  0  0  0  0  0  0  0  0  0  0  0
    0.7910    0.1530   -0.5504 C   0  0  0  0  0  0  0  0  0  0  0  0
    1.6016    0.7325    0.5978 C   0  0  0  0  0  0  0  0  0  0  0  0
    3.0076    0.4173    0.1930 C   0  0  0  0  0  0  0  0  0  0  0  0
    2.8504   -0.8089   -0.6878 C   0  0  0  0  0  0  0  0  0  0  0  0
    1.5115   -0.9172   -1.1203 O   0  0  0  0  0  0  0  0  0  0  0  0
   -1.2943    2.5716   -2.9391 H   0  0  0  0  0  0  0  0  0  0  0  0
   -3.8686    0.6539    0.1547 H   0  0  0  0  0  0  0  0  0  0  0  0
   -3.9922   -1.4238    1.4558 H   0  0  0  0  0  0  0  0  0  0  0  0
    0.7152    0.9336   -1.3308 H   0  0  0  0  0  0  0  0  0  0  0  0
    1.3714    0.2248    1.5612 H   0  0  0  0  0  0  0  0  0  0  0  0
    1.4393    1.8274    0.7053 H   0  0  0  0  0  0  0  0  0  0  0  0
    3.6546    0.2144    1.0742 H   0  0  0  0  0  0  0  0  0  0  0  0
    3.4302    1.2594   -0.3989 H   0  0  0  0  0  0  0  0  0  0  0  0
    3.5233   -0.7422   -1.5693 H   0  0  0  0  0  0  0  0  0  0  0  0
    3.1140   -1.7222   -0.1118 H   0  0  0  0  0  0  0  0  0  0  0  0
  1  2  2  0
  2  3  1  0
  2  4  1  0
  4  5  2  0
  5  6  1  0
  6  7  2  0
  7  8  1  0
  7  9  1  0
  9 10  1  0
  9 11  2  0
 11 12  1  0
 12 13  1  0
 13 14  1  0
 14 15  1  0
 15 16  1  0
 11  4  1  0
 16 12  1  0
  3 17  1  0
  5 18  1  0
  6 19  1  0
 12 20  1  0
 13 21  1  0
 13 22  1  0
 14 23  1  0
 14 24  1  0
 15 25  1  0
 15 26  1  0
M  END
$$$$
