Molecule_40
     RDKit          3D

 39 42  0  0  0  0  0  0  0  0999 V2000
   -2.1237   -2.9027   -0.7875 O   0  0  0  0  0  0  0  0  0  0  0  0
   -2.7838   -2.5691    0.2332 C   0  0  0  0  0  0  0  0  0  0  0  0
   -3.5360   -3.5302    0.9031 O   0  0  0  0  0  0  0  0  0  0  0  0
   -2.7950   -1.1616    0.6952 C   0  0  0  0  0  0  0  0  0  0  0  0
   -3.9854   -0.6262    1.2233 C   0  0  0  0  0  0  0  0  0  0  0  0
   -5.1028   -1.3890    1.3363 F   0  0  0  0  0  0  0  0  0  0  0  0
   -4.0496    0.7132    1.6057 C   0  0  0  0  0  0  0  0  0  0  0  0
   -2.9358    1.5377    1.4696 C   0  0  0  0  0  0  0  0  0  0  0  0
   -1.7337    1.0329    0.9521 C   0  0  0  0  0  0  0  0  0  0  0  0
   -1.6541   -0.3251    0.5797 C   0  0  0  0  0  0  0  0  0  0  0  0
   -0.3923   -0.8417    0.1393 N   0  0  0  0  0  0  0  0  0  0  0  0
    0.5754    0.0563   -0.4849 C   0  0  0  0  0  0  0  0  0  0  0  0
    1.8751   -0.6747   -0.7696 C   0  0  0  0  0  0  0  0  0  0  0  0
    2.3957   -0.7103   -2.0757 C   0  0  0  0  0  0  0  0  0  0  0  0
    3.5974   -1.3742   -2.3404 C   0  0  0  0  0  0  0  0  0  0  0  0
    4.2907   -2.0087   -1.3064 C   0  0  0  0  0  0  0  0  0  0  0  0
    5.4557   -2.6519   -1.5657 F   0  0  0  0  0  0  0  0  0  0  0  0
    3.7829   -1.9801   -0.0050 C   0  0  0  0  0  0  0  0  0  0  0  0
    2.5821   -1.3170    0.2647 C   0  0  0  0  0  0  0  0  0  0  0  0
    0.8064    1.2942    0.4194 C   0  0  0  0  0  0  0  0  0  0  0  0
    1.5099    2.4229   -0.3613 C   0  0  0  0  0  0  0  0  0  0  0  0
    0.4046    3.3539   -0.7155 C   0  0  0  0  0  0  0  0  0  0  0  0
   -0.7075    3.0797   -0.0538 C   0  0  0  0  0  0  0  0  0  0  0  0
   -0.5201    1.9422    0.8933 C   0  0  0  0  0  0  0  0  0  0  0  0
   -3.5477   -4.4933    0.5894 H   0  0  0  0  0  0  0  0  0  0  0  0
   -4.9708    1.1172    2.0057 H   0  0  0  0  0  0  0  0  0  0  0  0
   -3.0050    2.5723    1.7826 H   0  0  0  0  0  0  0  0  0  0  0  0
   -0.1663   -1.8540    0.2653 H   0  0  0  0  0  0  0  0  0  0  0  0
    0.1270    0.4028   -1.4442 H   0  0  0  0  0  0  0  0  0  0  0  0
    1.8746   -0.2217   -2.8895 H   0  0  0  0  0  0  0  0  0  0  0  0
    3.9909   -1.3955   -3.3485 H   0  0  0  0  0  0  0  0  0  0  0  0
    4.3190   -2.4721    0.7963 H   0  0  0  0  0  0  0  0  0  0  0  0
    2.2014   -1.3075    1.2783 H   0  0  0  0  0  0  0  0  0  0  0  0
    1.4106    1.0068    1.3086 H   0  0  0  0  0  0  0  0  0  0  0  0
    2.2358    2.9517    0.2934 H   0  0  0  0  0  0  0  0  0  0  0  0
    2.0303    2.0710   -1.2772 H   0  0  0  0  0  0  0  0  0  0  0  0
    0.5073    4.1954   -1.3927 H   0  0  0  0  0  0  0  0  0  0  0  0
   -1.6056    3.6852   -0.1244 H   0  0  0  0  0  0  0  0  0  0  0  0
   -0.3578    2.3710    1.9078 H   0  0  0  0  0  0  0  0  0  0  0  0
  1  2  2  0
  2  3  1  0
  2  4  1  0
  4  5  2  0
  5  6  1  0
  5  7  1  0
  7  8  2  0
  8  9  1  0
  9 10  2  0
 10 11  1  0
 11 12  1  0
 12 13  1  0
 13 14  2  0
 14 15  1  0
 15 16  2  0
 16 17  1  0
 16 18  1  0
 18 19  2  0
 12 20  1  0
 20 21  1  0
 21 22  1  0
 22 23  2  0
 23 24  1  0
 10  4  1  0
 19 13  1  0
 24 20  1  0
 24  9  1  0
  3 25  1  0
  7 26  1  0
  8 27  1  0
 11 28  1  0
 12 29  1  0
 14 30  1  0
 15 31  1  0
 18 32  1  0
 19 33  1  0
 20 34  1  0
 21 35  1  0
 21 36  1  0
 22 37  1  0
 23 38  1  0
 24 39  1  0
M  END
$$$$
