Molecule_3
     RDKit          3D

 28 29  0  0  0  0  0  0  0  0999 V2000
    3.5984   -1.5832   -2.8633 O   0  0  0  0  0  0  0  0  0  0  0  0
    4.1255   -0.9558   -1.9059 C   0  0  0  0  0  0  0  0  0  0  0  0
    4.9646    0.1246   -2.1598 O   0  0  0  0  0  0  0  0  0  0  0  0
    3.8131   -1.3394   -0.4966 C   0  0  0  0  0  0  0  0  0  0  0  0
    2.6290   -0.5683   -0.0107 C   0  0  0  0  0  0  0  0  0  0  0  0
    2.6661    0.6621    0.6128 C   0  0  0  0  0  0  0  0  0  0  0  0
    1.3515    0.9967    0.8570 C   0  0  0  0  0  0  0  0  0  0  0  0
    0.5907   -0.0505    0.3571 C   0  0  0  0  0  0  0  0  0  0  0  0
   -0.8856   -0.1841    0.3864 C   0  0  0  0  0  0  0  0  0  0  0  0
   -1.4451   -1.4666    0.2951 C   0  0  0  0  0  0  0  0  0  0  0  0
   -2.8266   -1.6411    0.3249 C   0  0  0  0  0  0  0  0  0  0  0  0
   -3.6759   -0.5405    0.4388 C   0  0  0  0  0  0  0  0  0  0  0  0
   -5.0141   -0.7626    0.4775 F   0  0  0  0  0  0  0  0  0  0  0  0
   -3.1467    0.7646    0.5159 C   0  0  0  0  0  0  0  0  0  0  0  0
   -4.0550    1.9384    0.6233 C   0  0  0  0  0  0  0  0  0  0  0  0
   -3.5936    3.0894    0.8498 O   0  0  0  0  0  0  0  0  0  0  0  0
   -5.4313    1.7847    0.4776 O   0  0  0  0  0  0  0  0  0  0  0  0
   -1.7420    0.9345    0.4828 C   0  0  0  0  0  0  0  0  0  0  0  0
   -1.2155    2.1856    0.4872 F   0  0  0  0  0  0  0  0  0  0  0  0
    1.3864   -0.9663   -0.1506 O   0  0  0  0  0  0  0  0  0  0  0  0
    5.1730    0.4084   -3.1097 H   0  0  0  0  0  0  0  0  0  0  0  0
    3.5950   -2.4275   -0.4399 H   0  0  0  0  0  0  0  0  0  0  0  0
    4.6921   -1.1308    0.1503 H   0  0  0  0  0  0  0  0  0  0  0  0
    3.5438    1.2420    0.8661 H   0  0  0  0  0  0  0  0  0  0  0  0
    1.0095    1.8857    1.3678 H   0  0  0  0  0  0  0  0  0  0  0  0
   -0.8104   -2.3407    0.2133 H   0  0  0  0  0  0  0  0  0  0  0  0
   -3.2421   -2.6389    0.2635 H   0  0  0  0  0  0  0  0  0  0  0  0
   -6.0551    2.5796    0.5505 H   0  0  0  0  0  0  0  0  0  0  0  0
  1  2  2  0
  2  3  1  0
  2  4  1  0
  4  5  1  0
  5  6  2  0
  6  7  1  0
  7  8  2  0
  8  9  1  0
  9 10  2  0
 10 11  1  0
 11 12  2  0
 12 13  1  0
 12 14  1  0
 14 15  1  0
 15 16  2  0
 15 17  1  0
 14 18  2  0
 18 19  1  0
  8 20  1  0
 20  5  1  0
 18  9  1  0
  3 21  1  0
  4 22  1  0
  4 23  1  0
  6 24  1  0
  7 25  1  0
 10 26  1  0
 11 27  1  0
 17 28  1  0
M  END
$$$$
