Molecule_27
     RDKit          3D

 32 33  0  0  0  0  0  0  0  0999 V2000
   -3.5473   -0.4189    2.3848 C   0  0  0  0  0  0  0  0  0  0  0  0
   -3.6654   -0.7832    1.0141 O   0  0  0  0  0  0  0  0  0  0  0  0
   -2.6934   -0.5909    0.0152 C   0  0  0  0  0  0  0  0  0  0  0  0
   -3.0119   -1.0345   -1.2761 C   0  0  0  0  0  0  0  0  0  0  0  0
   -4.2134   -1.6184   -1.5133 F   0  0  0  0  0  0  0  0  0  0  0  0
   -2.1050   -0.8876   -2.3261 C   0  0  0  0  0  0  0  0  0  0  0  0
   -0.8665   -0.2897   -2.1045 C   0  0  0  0  0  0  0  0  0  0  0  0
   -0.5251    0.1768   -0.8281 C   0  0  0  0  0  0  0  0  0  0  0  0
   -1.4315    0.0145    0.2447 C   0  0  0  0  0  0  0  0  0  0  0  0
   -1.0795    0.4809    1.5180 O   0  0  0  0  0  0  0  0  0  0  0  0
    0.2333    0.9314    1.8453 C   0  0  0  0  0  0  0  0  0  0  0  0
    0.8445    1.6852    0.6621 C   0  0  0  0  0  0  0  0  0  0  0  0
    2.1501    2.0860    0.9861 O   0  0  0  0  0  0  0  0  0  0  0  0
    0.8383    0.7923   -0.5996 C   0  0  0  0  0  0  0  0  0  0  0  0
    1.8388   -0.2752   -0.4869 N   0  0  0  0  0  0  0  0  0  0  0  0
    3.1613   -0.1635   -1.0313 C   0  0  0  0  0  0  0  0  0  0  0  0
    4.1500   -1.2616   -0.8125 C   0  0  0  0  0  0  0  0  0  0  0  0
    3.5059    0.8651   -1.6739 O   0  0  0  0  0  0  0  0  0  0  0  0
   -3.4213    0.6799    2.4811 H   0  0  0  0  0  0  0  0  0  0  0  0
   -2.6982   -0.9588    2.8544 H   0  0  0  0  0  0  0  0  0  0  0  0
   -4.4778   -0.7087    2.9143 H   0  0  0  0  0  0  0  0  0  0  0  0
   -2.3625   -1.2408   -3.3165 H   0  0  0  0  0  0  0  0  0  0  0  0
   -0.1704   -0.1897   -2.9284 H   0  0  0  0  0  0  0  0  0  0  0  0
    0.8640    0.0565    2.1123 H   0  0  0  0  0  0  0  0  0  0  0  0
    0.1758    1.5990    2.7308 H   0  0  0  0  0  0  0  0  0  0  0  0
    0.2150    2.5863    0.4708 H   0  0  0  0  0  0  0  0  0  0  0  0
    2.4126    2.7689    0.3150 H   0  0  0  0  0  0  0  0  0  0  0  0
    1.0737    1.4403   -1.4734 H   0  0  0  0  0  0  0  0  0  0  0  0
    1.6112   -1.1193    0.0870 H   0  0  0  0  0  0  0  0  0  0  0  0
    5.0575   -1.0999   -1.4324 H   0  0  0  0  0  0  0  0  0  0  0  0
    3.6952   -2.2351   -1.0912 H   0  0  0  0  0  0  0  0  0  0  0  0
    4.4420   -1.2874    0.2579 H   0  0  0  0  0  0  0  0  0  0  0  0
  1  2  1  0
  2  3  1  0
  3  4  2  0
  4  5  1  0
  4  6  1  0
  6  7  2  0
  7  8  1  0
  8  9  2  0
  9 10  1  0
 10 11  1  0
 11 12  1  0
 12 13  1  0
 12 14  1  0
 14 15  1  0
 15 16  1  0
 16 17  1  0
 16 18  2  0
  9  3  1  0
 14  8  1  0
  1 19  1  0
  1 20  1  0
  1 21  1  0
  6 22  1  0
  7 23  1  0
 11 24  1  0
 11 25  1  0
 12 26  1  0
 13 27  1  0
 14 28  1  0
 15 29  1  0
 17 30  1  0
 17 31  1  0
 17 32  1  0
M  END
$$$$
