Molecule_23
     RDKit          3D

 26 27  0  0  0  0  0  0  0  0999 V2000
   -3.9688   -0.9737   -0.4034 O   0  0  0  0  0  0  0  0  0  0  0  0
   -3.0931   -0.2844    0.1848 C   0  0  0  0  0  0  0  0  0  0  0  0
   -3.1247    1.1035    0.0946 O   0  0  0  0  0  0  0  0  0  0  0  0
   -2.0004   -0.9592    0.9556 C   0  0  0  0  0  0  0  0  0  0  0  0
   -0.9316   -1.5668    0.0347 C   0  0  0  0  0  0  0  0  0  0  0  0
   -0.2167   -0.5528   -0.8921 C   0  0  0  0  0  0  0  0  0  0  0  0
    0.7293   -1.2975   -1.8830 C   0  0  0  0  0  0  0  0  0  0  0  0
    2.0557   -0.9262   -1.5144 O   0  0  0  0  0  0  0  0  0  0  0  0
    2.0239    0.0494   -0.5444 C   0  0  0  0  0  0  0  0  0  0  0  0
    3.1210    0.7296   -0.0180 C   0  0  0  0  0  0  0  0  0  0  0  0
    4.3818    0.4241   -0.4113 F   0  0  0  0  0  0  0  0  0  0  0  0
    2.8863    1.7569    0.9094 C   0  0  0  0  0  0  0  0  0  0  0  0
    1.5678    2.0908    1.2741 C   0  0  0  0  0  0  0  0  0  0  0  0
    0.4820    1.3846    0.7295 C   0  0  0  0  0  0  0  0  0  0  0  0
    0.7431    0.3326   -0.1558 C   0  0  0  0  0  0  0  0  0  0  0  0
   -3.8496    1.5734   -0.4343 H   0  0  0  0  0  0  0  0  0  0  0  0
   -1.5430   -0.2527    1.6755 H   0  0  0  0  0  0  0  0  0  0  0  0
   -2.4497   -1.7762    1.5606 H   0  0  0  0  0  0  0  0  0  0  0  0
   -0.1773   -2.0898    0.6636 H   0  0  0  0  0  0  0  0  0  0  0  0
   -1.4252   -2.3411   -0.5936 H   0  0  0  0  0  0  0  0  0  0  0  0
   -0.9494    0.0602   -1.4604 H   0  0  0  0  0  0  0  0  0  0  0  0
    0.5333   -0.9591   -2.9232 H   0  0  0  0  0  0  0  0  0  0  0  0
    0.6272   -2.4035   -1.8407 H   0  0  0  0  0  0  0  0  0  0  0  0
    3.7182    2.3073    1.3295 H   0  0  0  0  0  0  0  0  0  0  0  0
    1.3895    2.9015    1.9685 H   0  0  0  0  0  0  0  0  0  0  0  0
   -0.5296    1.6693    0.9804 H   0  0  0  0  0  0  0  0  0  0  0  0
  1  2  2  0
  2  3  1  0
  2  4  1  0
  4  5  1  0
  5  6  1  0
  6  7  1  0
  7  8  1  0
  8  9  1  0
  9 10  2  0
 10 11  1  0
 10 12  1  0
 12 13  2  0
 13 14  1  0
 14 15  2  0
 15  6  1  0
 15  9  1  0
  3 16  1  0
  4 17  1  0
  4 18  1  0
  5 19  1  0
  5 20  1  0
  6 21  1  0
  7 22  1  0
  7 23  1  0
 12 24  1  0
 13 25  1  0
 14 26  1  0
M  END
$$$$
