Molecule_18
     RDKit          3D

 21 22  0  0  0  0  0  0  0  0999 V2000
    4.4605   -0.2854   -1.1574 O   0  0  0  0  0  0  0  0  0  0  0  0
    3.5100    0.4638   -0.8069 C   0  0  0  0  0  0  0  0  0  0  0  0
    3.7324    1.8258   -0.6279 O   0  0  0  0  0  0  0  0  0  0  0  0
    2.1720   -0.0986   -0.5885 C   0  0  0  0  0  0  0  0  0  0  0  0
    1.0463    0.6233   -0.1921 C   0  0  0  0  0  0  0  0  0  0  0  0
   -0.1008   -0.1817   -0.0587 C   0  0  0  0  0  0  0  0  0  0  0  0
   -1.3982    0.2211    0.3387 C   0  0  0  0  0  0  0  0  0  0  0  0
   -1.7456    1.6361    0.6111 C   0  0  0  0  0  0  0  0  0  0  0  0
   -1.1794    2.5700   -0.0168 O   0  0  0  0  0  0  0  0  0  0  0  0
   -2.7312    1.9450    1.5447 O   0  0  0  0  0  0  0  0  0  0  0  0
   -2.3929   -0.7799    0.4637 C   0  0  0  0  0  0  0  0  0  0  0  0
   -3.6600   -0.4564    0.8272 F   0  0  0  0  0  0  0  0  0  0  0  0
   -2.1003   -2.1264    0.1815 C   0  0  0  0  0  0  0  0  0  0  0  0
   -0.8172   -2.5058   -0.2244 C   0  0  0  0  0  0  0  0  0  0  0  0
    0.1571   -1.5215   -0.3336 C   0  0  0  0  0  0  0  0  0  0  0  0
    1.7667   -1.7287   -0.7604 S   0  0  0  0  0  0  0  0  0  0  0  0
    4.6511    2.2263   -0.7755 H   0  0  0  0  0  0  0  0  0  0  0  0
    1.0807    1.6842    0.0083 H   0  0  0  0  0  0  0  0  0  0  0  0
   -2.9873    2.9071    1.7321 H   0  0  0  0  0  0  0  0  0  0  0  0
   -2.8750   -2.8766    0.2743 H   0  0  0  0  0  0  0  0  0  0  0  0
   -0.5887   -3.5417   -0.4394 H   0  0  0  0  0  0  0  0  0  0  0  0
  1  2  2  0
  2  3  1  0
  2  4  1  0
  4  5  2  0
  5  6  1  0
  6  7  2  0
  7  8  1  0
  8  9  2  0
  8 10  1  0
  7 11  1  0
 11 12  1  0
 11 13  2  0
 13 14  1  0
 14 15  2  0
 15 16  1  0
 16  4  1  0
 15  6  1  0
  3 17  1  0
  5 18  1  0
 10 19  1  0
 13 20  1  0
 14 21  1  0
M  END
$$$$
