Molecule_31
     RDKit          3D

 22 22  0  0  0  0  0  0  0  0999 V2000
    3.6955    0.0766   -0.8664 O   0  0  0  0  0  0  0  0  0  0  0  0
    2.4947    0.2108   -1.2235 C   0  0  0  0  0  0  0  0  0  0  0  0
    1.9245   -0.7009   -2.1062 O   0  0  0  0  0  0  0  0  0  0  0  0
    1.6645    1.3170   -0.6569 C   0  0  0  0  0  0  0  0  0  0  0  0
    1.1125    0.9270    0.5988 O   0  0  0  0  0  0  0  0  0  0  0  0
    0.0887   -0.0209    0.6986 C   0  0  0  0  0  0  0  0  0  0  0  0
    0.4162   -1.3168    1.1204 C   0  0  0  0  0  0  0  0  0  0  0  0
    1.6968   -1.6215    1.4479 F   0  0  0  0  0  0  0  0  0  0  0  0
   -0.5643   -2.3070    1.1834 C   0  0  0  0  0  0  0  0  0  0  0  0
   -1.8808   -2.0093    0.8350 C   0  0  0  0  0  0  0  0  0  0  0  0
   -2.2295   -0.7161    0.4361 C   0  0  0  0  0  0  0  0  0  0  0  0
   -3.5294   -0.4566    0.1434 F   0  0  0  0  0  0  0  0  0  0  0  0
   -1.2522    0.3013    0.3756 C   0  0  0  0  0  0  0  0  0  0  0  0
   -1.6408    1.6874    0.0159 C   0  0  0  0  0  0  0  0  0  0  0  0
   -2.6824    1.9036   -0.6605 O   0  0  0  0  0  0  0  0  0  0  0  0
   -0.8695    2.7678    0.4358 O   0  0  0  0  0  0  0  0  0  0  0  0
    2.4674   -1.4691   -2.4820 H   0  0  0  0  0  0  0  0  0  0  0  0
    2.3004    2.2145   -0.5059 H   0  0  0  0  0  0  0  0  0  0  0  0
    0.8572    1.5853   -1.3713 H   0  0  0  0  0  0  0  0  0  0  0  0
   -0.3032   -3.3089    1.4994 H   0  0  0  0  0  0  0  0  0  0  0  0
   -2.6375   -2.7817    0.8863 H   0  0  0  0  0  0  0  0  0  0  0  0
   -1.1289    3.7172    0.1962 H   0  0  0  0  0  0  0  0  0  0  0  0
  1  2  2  0
  2  3  1  0
  2  4  1  0
  4  5  1  0
  5  6  1  0
  6  7  2  0
  7  8  1  0
  7  9  1  0
  9 10  2  0
 10 11  1  0
 11 12  1  0
 11 13  2  0
 13 14  1  0
 14 15  2  0
 14 16  1  0
 13  6  1  0
  3 17  1  0
  4 18  1  0
  4 19  1  0
  9 20  1  0
 10 21  1  0
 16 22  1  0
M  END
$$$$
