Molecule_36
     RDKit          3D

 27 29  0  0  0  0  0  0  0  0999 V2000
    3.3144   -2.0341    0.7670 O   0  0  0  0  0  0  0  0  0  0  0  0
    2.3794   -1.6914   -0.0052 C   0  0  0  0  0  0  0  0  0  0  0  0
    1.7486   -2.6483   -0.7948 O   0  0  0  0  0  0  0  0  0  0  0  0
    2.0039   -0.2738   -0.1272 C   0  0  0  0  0  0  0  0  0  0  0  0
    3.0067    0.6946   -0.3569 C   0  0  0  0  0  0  0  0  0  0  0  0
    4.3165    0.3381   -0.3788 F   0  0  0  0  0  0  0  0  0  0  0  0
    2.6634    2.0332   -0.6161 C   0  0  0  0  0  0  0  0  0  0  0  0
    1.3208    2.4277   -0.6571 C   0  0  0  0  0  0  0  0  0  0  0  0
    0.3334    1.4764   -0.4048 C   0  0  0  0  0  0  0  0  0  0  0  0
    0.6615    0.1583   -0.1175 C   0  0  0  0  0  0  0  0  0  0  0  0
   -0.5876   -0.5441    0.1773 C   0  0  0  0  0  0  0  0  0  0  0  0
   -0.8194   -1.8307    0.6794 C   0  0  0  0  0  0  0  0  0  0  0  0
   -2.1434   -2.2311    0.9180 C   0  0  0  0  0  0  0  0  0  0  0  0
   -3.2088   -1.3427    0.6869 C   0  0  0  0  0  0  0  0  0  0  0  0
   -2.9569   -0.0387    0.2362 C   0  0  0  0  0  0  0  0  0  0  0  0
   -1.6354    0.3460   -0.0006 C   0  0  0  0  0  0  0  0  0  0  0  0
   -1.1475    1.7097   -0.3896 C   0  0  0  0  0  0  0  0  0  0  0  0
   -1.4758    2.6552    0.5916 O   0  0  0  0  0  0  0  0  0  0  0  0
    2.0111   -3.6250   -0.7369 H   0  0  0  0  0  0  0  0  0  0  0  0
    3.4411    2.7619   -0.8051 H   0  0  0  0  0  0  0  0  0  0  0  0
    1.0562    3.4550   -0.8721 H   0  0  0  0  0  0  0  0  0  0  0  0
   -0.0132   -2.5054    0.9191 H   0  0  0  0  0  0  0  0  0  0  0  0
   -2.3447   -3.2243    1.2980 H   0  0  0  0  0  0  0  0  0  0  0  0
   -4.2256   -1.6585    0.8806 H   0  0  0  0  0  0  0  0  0  0  0  0
   -3.7711    0.6595    0.0915 H   0  0  0  0  0  0  0  0  0  0  0  0
   -1.5134    2.0056   -1.3989 H   0  0  0  0  0  0  0  0  0  0  0  0
   -2.4141    2.9269    0.4159 H   0  0  0  0  0  0  0  0  0  0  0  0
  1  2  2  0
  2  3  1  0
  2  4  1  0
  4  5  2  0
  5  6  1  0
  5  7  1  0
  7  8  2  0
  8  9  1  0
  9 10  2  0
 10 11  1  0
 11 12  2  0
 12 13  1  0
 13 14  2  0
 14 15  1  0
 15 16  2  0
 16 17  1  0
 17 18  1  0
 10  4  1  0
 16 11  1  0
 17  9  1  0
  3 19  1  0
  7 20  1  0
  8 21  1  0
 12 22  1  0
 13 23  1  0
 14 24  1  0
 15 25  1  0
 17 26  1  0
 18 27  1  0
M  END
$$$$
