Molecule_13
     RDKit          3D

 27 28  0  0  0  0  0  0  0  0999 V2000
   -1.5428   -2.0889    1.3725 O   0  0  0  0  0  0  0  0  0  0  0  0
   -2.3433   -1.1259    1.2390 C   0  0  0  0  0  0  0  0  0  0  0  0
   -3.5788   -1.1696    1.8789 O   0  0  0  0  0  0  0  0  0  0  0  0
   -2.0038    0.0213    0.3693 C   0  0  0  0  0  0  0  0  0  0  0  0
   -2.9971    0.5031   -0.5068 C   0  0  0  0  0  0  0  0  0  0  0  0
   -4.2283   -0.0686   -0.5424 F   0  0  0  0  0  0  0  0  0  0  0  0
   -2.7233    1.5537   -1.3818 C   0  0  0  0  0  0  0  0  0  0  0  0
   -1.4617    2.1398   -1.3988 C   0  0  0  0  0  0  0  0  0  0  0  0
   -0.4671    1.6932   -0.5290 C   0  0  0  0  0  0  0  0  0  0  0  0
    0.7492    2.2929   -0.5782 F   0  0  0  0  0  0  0  0  0  0  0  0
   -0.7223    0.6425    0.3765 C   0  0  0  0  0  0  0  0  0  0  0  0
    0.5569    0.1853    1.5288 S   0  0  0  0  0  0  0  0  0  0  0  0
    1.4324    1.3737    1.8161 O   0  0  0  0  0  0  0  0  0  0  0  0
   -0.0528   -0.2478    2.8325 O   0  0  0  0  0  0  0  0  0  0  0  0
    1.5333   -1.1046    0.8952 N   0  0  0  0  0  0  0  0  0  0  0  0
    2.1503   -0.6656   -0.3526 C   0  0  0  0  0  0  0  0  0  0  0  0
    3.5228   -0.0398   -0.1776 C   0  0  0  0  0  0  0  0  0  0  0  0
    3.3963   -1.4632   -0.6954 C   0  0  0  0  0  0  0  0  0  0  0  0
   -3.8336   -1.9561    2.4644 H   0  0  0  0  0  0  0  0  0  0  0  0
   -3.4901    1.9081   -2.0588 H   0  0  0  0  0  0  0  0  0  0  0  0
   -1.2543    2.9485   -2.0880 H   0  0  0  0  0  0  0  0  0  0  0  0
    0.8949   -1.8959    0.6580 H   0  0  0  0  0  0  0  0  0  0  0  0
    1.5142   -0.3753   -1.2165 H   0  0  0  0  0  0  0  0  0  0  0  0
    3.8822    0.0339    0.8712 H   0  0  0  0  0  0  0  0  0  0  0  0
    3.7805    0.7093   -0.9554 H   0  0  0  0  0  0  0  0  0  0  0  0
    3.6917   -2.2395    0.0430 H   0  0  0  0  0  0  0  0  0  0  0  0
    3.5946   -1.5647   -1.7832 H   0  0  0  0  0  0  0  0  0  0  0  0
  1  2  2  0
  2  3  1  0
  2  4  1  0
  4  5  2  0
  5  6  1  0
  5  7  1  0
  7  8  2  0
  8  9  1  0
  9 10  1  0
  9 11  2  0
 11 12  1  0
 12 13  2  0
 12 14  2  0
 12 15  1  0
 15 16  1  0
 16 17  1  0
 17 18  1  0
 11  4  1  0
 18 16  1  0
  3 19  1  0
  7 20  1  0
  8 21  1  0
 15 22  1  0
 16 23  1  0
 17 24  1  0
 17 25  1  0
 18 26  1  0
 18 27  1  0
M  END
$$$$
