Molecule_15
     RDKit          3D

 18 18  0  0  0  0  0  0  0  0999 V2000
   -2.7062   -0.0246   -0.0396 O   0  0  0  0  0  0  0  0  0  0  0  0
   -1.7980   -0.7819    0.3967 C   0  0  0  0  0  0  0  0  0  0  0  0
   -2.1453   -1.8924    1.1618 O   0  0  0  0  0  0  0  0  0  0  0  0
   -0.3772   -0.5350    0.0547 C   0  0  0  0  0  0  0  0  0  0  0  0
    0.4651   -1.6501   -0.0978 C   0  0  0  0  0  0  0  0  0  0  0  0
    1.7863   -1.4957   -0.5150 C   0  0  0  0  0  0  0  0  0  0  0  0
    2.2920   -0.2258   -0.7866 C   0  0  0  0  0  0  0  0  0  0  0  0
    4.1056   -0.0385   -1.3638 Br  0  0  0  0  0  0  0  0  0  0  0  0
    1.4807    0.9017   -0.6209 C   0  0  0  0  0  0  0  0  0  0  0  0
    2.0096    2.1327   -0.8458 F   0  0  0  0  0  0  0  0  0  0  0  0
    0.1461    0.7663   -0.1831 C   0  0  0  0  0  0  0  0  0  0  0  0
   -0.6431    1.9909    0.0838 C   0  0  0  0  0  0  0  0  0  0  0  0
   -0.5497    2.9862   -0.6842 O   0  0  0  0  0  0  0  0  0  0  0  0
   -1.4620    2.0674    1.2071 O   0  0  0  0  0  0  0  0  0  0  0  0
   -3.1136   -2.0859    1.3882 H   0  0  0  0  0  0  0  0  0  0  0  0
    0.0912   -2.6517    0.0771 H   0  0  0  0  0  0  0  0  0  0  0  0
    2.4150   -2.3684   -0.6378 H   0  0  0  0  0  0  0  0  0  0  0  0
   -1.9965    2.9049    1.4050 H   0  0  0  0  0  0  0  0  0  0  0  0
  1  2  2  0
  2  3  1  0
  2  4  1  0
  4  5  2  0
  5  6  1  0
  6  7  2  0
  7  8  1  0
  7  9  1  0
  9 10  1  0
  9 11  2  0
 11 12  1  0
 12 13  2  0
 12 14  1  0
 11  4  1  0
  3 15  1  0
  5 16  1  0
  6 17  1  0
 14 18  1  0
M  END
$$$$
