Molecule_8
     RDKit          3D

 27 29  0  0  0  0  0  0  0  0999 V2000
   -4.2036    0.7713   -0.8862 O   0  0  0  0  0  0  0  0  0  0  0  0
   -3.4326    0.7056    0.1085 C   0  0  0  0  0  0  0  0  0  0  0  0
   -3.2163    1.8392    0.8871 O   0  0  0  0  0  0  0  0  0  0  0  0
   -2.8274   -0.6174    0.5009 C   0  0  0  0  0  0  0  0  0  0  0  0
   -1.4980   -0.5164    1.2587 C   0  0  0  0  0  0  0  0  0  0  0  0
   -0.7985   -1.2860    0.1390 C   0  0  0  0  0  0  0  0  0  0  0  0
    0.0472   -0.4321   -0.7607 C   0  0  0  0  0  0  0  0  0  0  0  0
    1.4384   -0.0078   -0.4772 C   0  0  0  0  0  0  0  0  0  0  0  0
    2.0731   -0.3889    0.7196 C   0  0  0  0  0  0  0  0  0  0  0  0
    3.3849    0.0155    0.9854 C   0  0  0  0  0  0  0  0  0  0  0  0
    4.0774    0.8030    0.0626 C   0  0  0  0  0  0  0  0  0  0  0  0
    5.3494    1.1924    0.3256 F   0  0  0  0  0  0  0  0  0  0  0  0
    3.4580    1.1885   -1.1294 C   0  0  0  0  0  0  0  0  0  0  0  0
    4.1283    1.9533   -2.0265 F   0  0  0  0  0  0  0  0  0  0  0  0
    2.1457    0.7866   -1.3996 C   0  0  0  0  0  0  0  0  0  0  0  0
   -0.5938   -0.0702   -1.8199 N   0  0  0  0  0  0  0  0  0  0  0  0
   -1.8613   -0.5931   -1.7964 O   0  0  0  0  0  0  0  0  0  0  0  0
   -2.1117   -1.3685   -0.6311 C   0  0  0  0  0  0  0  0  0  0  0  0
   -3.6426    2.7255    0.6446 H   0  0  0  0  0  0  0  0  0  0  0  0
   -3.5587   -1.2667    1.0302 H   0  0  0  0  0  0  0  0  0  0  0  0
   -1.5136   -1.0946    2.2079 H   0  0  0  0  0  0  0  0  0  0  0  0
   -1.1078    0.5178    1.3868 H   0  0  0  0  0  0  0  0  0  0  0  0
   -0.3730   -2.2747    0.4170 H   0  0  0  0  0  0  0  0  0  0  0  0
    1.5586   -0.9963    1.4528 H   0  0  0  0  0  0  0  0  0  0  0  0
    3.8639   -0.2825    1.9092 H   0  0  0  0  0  0  0  0  0  0  0  0
    1.6851    1.0966   -2.3293 H   0  0  0  0  0  0  0  0  0  0  0  0
   -2.4711   -2.3999   -0.8361 H   0  0  0  0  0  0  0  0  0  0  0  0
  1  2  2  0
  2  3  1  0
  2  4  1  0
  4  5  1  0
  5  6  1  0
  6  7  1  0
  7  8  1  0
  8  9  2  0
  9 10  1  0
 10 11  2  0
 11 12  1  0
 11 13  1  0
 13 14  1  0
 13 15  2  0
  7 16  2  0
 16 17  1  0
 17 18  1  0
 18  4  1  0
 18  6  1  0
 15  8  1  0
  3 19  1  0
  4 20  1  0
  5 21  1  0
  5 22  1  0
  6 23  1  0
  9 24  1  0
 10 25  1  0
 15 26  1  0
 18 27  1  0
M  END
$$$$
