Molecule_11
     RDKit          3D

 27 28  0  0  0  0  0  0  0  0999 V2000
   -2.8552    2.4326    2.3007 O   0  0  0  0  0  0  0  0  0  0  0  0
   -2.3566    1.8190    1.3211 C   0  0  0  0  0  0  0  0  0  0  0  0
   -0.9265    1.3666    1.3718 C   0  0  0  0  0  0  0  0  0  0  0  0
   -0.7168    0.1734    0.4217 C   0  0  0  0  0  0  0  0  0  0  0  0
    0.7488   -0.2391    0.3850 C   0  0  0  0  0  0  0  0  0  0  0  0
    1.7331    0.6471   -0.0980 C   0  0  0  0  0  0  0  0  0  0  0  0
    3.0764    0.2641   -0.1381 C   0  0  0  0  0  0  0  0  0  0  0  0
    3.4566   -1.0050    0.3013 C   0  0  0  0  0  0  0  0  0  0  0  0
    4.7606   -1.3743    0.2608 F   0  0  0  0  0  0  0  0  0  0  0  0
    2.4933   -1.8942    0.7819 C   0  0  0  0  0  0  0  0  0  0  0  0
    1.1464   -1.5193    0.8257 C   0  0  0  0  0  0  0  0  0  0  0  0
    0.2362   -2.4097    1.2959 F   0  0  0  0  0  0  0  0  0  0  0  0
   -1.2669    0.5010   -0.9905 C   0  0  0  0  0  0  0  0  0  0  0  0
   -1.1953   -0.7054   -1.8858 C   0  0  0  0  0  0  0  0  0  0  0  0
   -0.4476   -0.6940   -2.9002 O   0  0  0  0  0  0  0  0  0  0  0  0
   -1.9413   -1.8425   -1.5876 O   0  0  0  0  0  0  0  0  0  0  0  0
   -2.6948    0.9877   -0.9067 C   0  0  0  0  0  0  0  0  0  0  0  0
   -3.1461    1.6044    0.1450 N   0  0  0  0  0  0  0  0  0  0  0  0
   -0.2827    2.2232    1.0799 H   0  0  0  0  0  0  0  0  0  0  0  0
   -0.6653    1.0662    2.4101 H   0  0  0  0  0  0  0  0  0  0  0  0
   -1.3274   -0.6639    0.8300 H   0  0  0  0  0  0  0  0  0  0  0  0
    1.4647    1.6359   -0.4457 H   0  0  0  0  0  0  0  0  0  0  0  0
    3.8227    0.9536   -0.5114 H   0  0  0  0  0  0  0  0  0  0  0  0
    2.7906   -2.8783    1.1212 H   0  0  0  0  0  0  0  0  0  0  0  0
   -0.6702    1.3244   -1.4405 H   0  0  0  0  0  0  0  0  0  0  0  0
   -1.8946   -2.6640   -2.1783 H   0  0  0  0  0  0  0  0  0  0  0  0
   -3.3422    0.8904   -1.7694 H   0  0  0  0  0  0  0  0  0  0  0  0
  1  2  2  0
  2  3  1  0
  3  4  1  0
  4  5  1  0
  5  6  2  0
  6  7  1  0
  7  8  2  0
  8  9  1  0
  8 10  1  0
 10 11  2  0
 11 12  1  0
  4 13  1  0
 13 14  1  0
 14 15  2  0
 14 16  1  0
 13 17  1  0
 17 18  2  0
 18  2  1  0
 11  5  1  0
  3 19  1  0
  3 20  1  0
  4 21  1  0
  6 22  1  0
  7 23  1  0
 10 24  1  0
 13 25  1  0
 16 26  1  0
 17 27  1  0
M  END
$$$$
