Molecule_37
     RDKit          3D

 19 19  0  0  0  0  0  0  0  0999 V2000
    3.7338    0.0410   -0.1109 O   0  0  0  0  0  0  0  0  0  0  0  0
    2.6499    0.6763   -0.2146 C   0  0  0  0  0  0  0  0  0  0  0  0
    2.6833    2.0600   -0.3599 O   0  0  0  0  0  0  0  0  0  0  0  0
    1.3597   -0.0518   -0.2226 C   0  0  0  0  0  0  0  0  0  0  0  0
    1.2828   -1.2949   -0.8803 C   0  0  0  0  0  0  0  0  0  0  0  0
    2.3680   -1.8209   -1.5044 F   0  0  0  0  0  0  0  0  0  0  0  0
    0.0796   -1.9955   -0.9295 C   0  0  0  0  0  0  0  0  0  0  0  0
   -1.0619   -1.4752   -0.3270 C   0  0  0  0  0  0  0  0  0  0  0  0
   -1.0162   -0.2466    0.3451 C   0  0  0  0  0  0  0  0  0  0  0  0
   -2.4936    0.3655    1.1046 S   0  0  0  0  0  0  0  0  0  0  0  0
   -3.6576   -0.5375    0.8042 O   0  0  0  0  0  0  0  0  0  0  0  0
   -2.3008    0.4239    2.5937 O   0  0  0  0  0  0  0  0  0  0  0  0
   -2.8406    1.9037    0.5208 O   0  0  0  0  0  0  0  0  0  0  0  0
    0.2018    0.4719    0.4083 C   0  0  0  0  0  0  0  0  0  0  0  0
    0.2963    2.1083    1.4302 Br  0  0  0  0  0  0  0  0  0  0  0  0
    3.5634    2.5615   -0.3668 H   0  0  0  0  0  0  0  0  0  0  0  0
    0.0290   -2.9463   -1.4447 H   0  0  0  0  0  0  0  0  0  0  0  0
   -1.9828   -2.0406   -0.3836 H   0  0  0  0  0  0  0  0  0  0  0  0
   -2.8939    1.7971   -0.4626 H   0  0  0  0  0  0  0  0  0  0  0  0
  1  2  2  0
  2  3  1  0
  2  4  1  0
  4  5  2  0
  5  6  1  0
  5  7  1  0
  7  8  2  0
  8  9  1  0
  9 10  1  0
 10 11  2  0
 10 12  2  0
 10 13  1  0
  9 14  2  0
 14 15  1  0
 14  4  1  0
  3 16  1  0
  7 17  1  0
  8 18  1  0
 13 19  1  0
M  END
$$$$
