Molecule_35
     RDKit          3D

 19 19  0  0  0  0  0  0  0  0999 V2000
    0.4937    2.4119   -2.3238 O   0  0  0  0  0  0  0  0  0  0  0  0
   -0.1672    1.7597   -1.4711 C   0  0  0  0  0  0  0  0  0  0  0  0
   -1.5370    1.9873   -1.3676 O   0  0  0  0  0  0  0  0  0  0  0  0
    0.5091    0.7704   -0.5881 C   0  0  0  0  0  0  0  0  0  0  0  0
   -0.2376   -0.2070    0.1176 C   0  0  0  0  0  0  0  0  0  0  0  0
   -1.6348   -0.2524   -0.0407 O   0  0  0  0  0  0  0  0  0  0  0  0
   -2.5175   -1.1738    0.5967 C   0  0  0  0  0  0  0  0  0  0  0  0
   -2.2005   -2.4697    0.2308 F   0  0  0  0  0  0  0  0  0  0  0  0
   -2.4391   -1.0372    1.9711 F   0  0  0  0  0  0  0  0  0  0  0  0
   -3.8115   -0.9030    0.1964 F   0  0  0  0  0  0  0  0  0  0  0  0
    0.4366   -1.1213    0.9530 C   0  0  0  0  0  0  0  0  0  0  0  0
    1.8236   -1.0761    1.0830 C   0  0  0  0  0  0  0  0  0  0  0  0
    2.5608   -0.1223    0.3867 C   0  0  0  0  0  0  0  0  0  0  0  0
    3.9098   -0.0845    0.5218 F   0  0  0  0  0  0  0  0  0  0  0  0
    1.9152    0.7966   -0.4438 C   0  0  0  0  0  0  0  0  0  0  0  0
    2.6686    1.7238   -1.0890 F   0  0  0  0  0  0  0  0  0  0  0  0
   -2.0001    2.6609   -1.9660 H   0  0  0  0  0  0  0  0  0  0  0  0
   -0.1000   -1.8780    1.5065 H   0  0  0  0  0  0  0  0  0  0  0  0
    2.3282   -1.7852    1.7267 H   0  0  0  0  0  0  0  0  0  0  0  0
  1  2  2  0
  2  3  1  0
  2  4  1  0
  4  5  2  0
  5  6  1  0
  6  7  1  0
  7  8  1  0
  7  9  1  0
  7 10  1  0
  5 11  1  0
 11 12  2  0
 12 13  1  0
 13 14  1  0
 13 15  2  0
 15 16  1  0
 15  4  1  0
  3 17  1  0
 11 18  1  0
 12 19  1  0
M  END
$$$$
