Molecule_30
     RDKit          3D

 22 22  0  0  0  0  0  0  0  0999 V2000
   -3.1856   -1.0255    1.7238 O   0  0  0  0  0  0  0  0  0  0  0  0
   -3.2881   -0.4812    0.5921 C   0  0  0  0  0  0  0  0  0  0  0  0
   -3.9676    0.7255    0.4592 O   0  0  0  0  0  0  0  0  0  0  0  0
   -2.6974   -1.1428   -0.6124 C   0  0  0  0  0  0  0  0  0  0  0  0
   -1.3167   -1.4375   -0.4000 O   0  0  0  0  0  0  0  0  0  0  0  0
   -0.2809   -0.4893   -0.3419 C   0  0  0  0  0  0  0  0  0  0  0  0
   -0.5013    0.8820   -0.5569 C   0  0  0  0  0  0  0  0  0  0  0  0
    0.5600    1.7827   -0.4875 C   0  0  0  0  0  0  0  0  0  0  0  0
    1.8522    1.3350   -0.2061 C   0  0  0  0  0  0  0  0  0  0  0  0
    2.8517    2.2511   -0.1494 F   0  0  0  0  0  0  0  0  0  0  0  0
    2.1008   -0.0371    0.0112 C   0  0  0  0  0  0  0  0  0  0  0  0
    3.4768   -0.5179    0.3103 C   0  0  0  0  0  0  0  0  0  0  0  0
    3.7010   -1.7431    0.5042 O   0  0  0  0  0  0  0  0  0  0  0  0
    4.5409    0.3773    0.3814 O   0  0  0  0  0  0  0  0  0  0  0  0
    1.0163   -0.9416   -0.0616 C   0  0  0  0  0  0  0  0  0  0  0  0
    1.2048   -2.2713    0.1404 F   0  0  0  0  0  0  0  0  0  0  0  0
   -4.3762    1.1829    1.2653 H   0  0  0  0  0  0  0  0  0  0  0  0
   -2.8246   -0.5114   -1.5176 H   0  0  0  0  0  0  0  0  0  0  0  0
   -3.2388   -2.0951   -0.7901 H   0  0  0  0  0  0  0  0  0  0  0  0
   -1.4868    1.2647   -0.7802 H   0  0  0  0  0  0  0  0  0  0  0  0
    0.3795    2.8371   -0.6542 H   0  0  0  0  0  0  0  0  0  0  0  0
    5.4799    0.0557    0.5848 H   0  0  0  0  0  0  0  0  0  0  0  0
  1  2  2  0
  2  3  1  0
  2  4  1  0
  4  5  1  0
  5  6  1  0
  6  7  2  0
  7  8  1  0
  8  9  2  0
  9 10  1  0
  9 11  1  0
 11 12  1  0
 12 13  2  0
 12 14  1  0
 11 15  2  0
 15 16  1  0
 15  6  1  0
  3 17  1  0
  4 18  1  0
  4 19  1  0
  7 20  1  0
  8 21  1  0
 14 22  1  0
M  END
$$$$
