Molecule_19
     RDKit          3D

 26 27  0  0  0  0  0  0  0  0999 V2000
    3.1081   -2.4222    0.1595 C   0  0  0  0  0  0  0  0  0  0  0  0
    2.1024   -1.3209    0.1131 C   0  0  0  0  0  0  0  0  0  0  0  0
    0.8054   -1.5085    0.0387 O   0  0  0  0  0  0  0  0  0  0  0  0
    0.2065   -0.3363    0.0025 C   0  0  0  0  0  0  0  0  0  0  0  0
   -1.2611   -0.1983   -0.0601 C   0  0  0  0  0  0  0  0  0  0  0  0
   -1.9842   -0.9716   -0.9819 C   0  0  0  0  0  0  0  0  0  0  0  0
   -3.3773   -0.8729   -1.0467 C   0  0  0  0  0  0  0  0  0  0  0  0
   -4.0594   -0.0149   -0.1805 C   0  0  0  0  0  0  0  0  0  0  0  0
   -3.3505    0.7381    0.7590 C   0  0  0  0  0  0  0  0  0  0  0  0
   -1.9563    0.6442    0.8284 C   0  0  0  0  0  0  0  0  0  0  0  0
   -1.2941    1.3424    1.7856 F   0  0  0  0  0  0  0  0  0  0  0  0
    1.1570    0.6848    0.0374 C   0  0  0  0  0  0  0  0  0  0  0  0
    0.9272    2.1378   -0.0915 C   0  0  0  0  0  0  0  0  0  0  0  0
   -0.1364    2.5668   -0.6130 O   0  0  0  0  0  0  0  0  0  0  0  0
    1.8808    3.0450    0.3573 O   0  0  0  0  0  0  0  0  0  0  0  0
    2.3760    0.0290    0.1102 C   0  0  0  0  0  0  0  0  0  0  0  0
    3.6526    0.5877    0.1335 O   0  0  0  0  0  0  0  0  0  0  0  0
    2.5959   -3.3979    0.2936 H   0  0  0  0  0  0  0  0  0  0  0  0
    3.6830   -2.4408   -0.7896 H   0  0  0  0  0  0  0  0  0  0  0  0
    3.8043   -2.2602    1.0088 H   0  0  0  0  0  0  0  0  0  0  0  0
   -1.4685   -1.6419   -1.6589 H   0  0  0  0  0  0  0  0  0  0  0  0
   -3.9283   -1.4633   -1.7673 H   0  0  0  0  0  0  0  0  0  0  0  0
   -5.1381    0.0586   -0.2302 H   0  0  0  0  0  0  0  0  0  0  0  0
   -3.8838    1.3873    1.4415 H   0  0  0  0  0  0  0  0  0  0  0  0
    1.7306    4.0431    0.2710 H   0  0  0  0  0  0  0  0  0  0  0  0
    3.8081    1.5847    0.0796 H   0  0  0  0  0  0  0  0  0  0  0  0
  1  2  1  0
  2  3  1  0
  3  4  1  0
  4  5  1  0
  5  6  2  0
  6  7  1  0
  7  8  2  0
  8  9  1  0
  9 10  2  0
 10 11  1  0
  4 12  2  0
 12 13  1  0
 13 14  2  0
 13 15  1  0
 12 16  1  0
 16 17  1  0
 16  2  2  0
 10  5  1  0
  1 18  1  0
  1 19  1  0
  1 20  1  0
  6 21  1  0
  7 22  1  0
  8 23  1  0
  9 24  1  0
 15 25  1  0
 17 26  1  0
M  END
$$$$
