Molecule_22
     RDKit          3D

 24 25  0  0  0  0  0  0  0  0999 V2000
   -2.2211    2.0686    1.0620 C   0  0  0  0  0  0  0  0  0  0  0  0
   -1.1957    1.0692    0.6328 C   0  0  0  0  0  0  0  0  0  0  0  0
    0.0995    1.2774    0.7534 O   0  0  0  0  0  0  0  0  0  0  0  0
    0.7266    0.2253    0.2861 C   0  0  0  0  0  0  0  0  0  0  0  0
    2.1127    0.0211    0.2273 C   0  0  0  0  0  0  0  0  0  0  0  0
    3.0699    1.0447    0.7019 C   0  0  0  0  0  0  0  0  0  0  0  0
    4.3110    0.8313    0.6412 O   0  0  0  0  0  0  0  0  0  0  0  0
    2.6118    2.2533    1.2196 O   0  0  0  0  0  0  0  0  0  0  0  0
    2.5619   -1.2089   -0.3019 C   0  0  0  0  0  0  0  0  0  0  0  0
    1.6430   -2.1832   -0.7391 C   0  0  0  0  0  0  0  0  0  0  0  0
    0.2604   -1.9483   -0.6669 C   0  0  0  0  0  0  0  0  0  0  0  0
   -0.6017   -2.9181   -1.0529 F   0  0  0  0  0  0  0  0  0  0  0  0
   -0.1744   -0.7170   -0.1593 C   0  0  0  0  0  0  0  0  0  0  0  0
   -1.4391   -0.1807    0.0563 C   0  0  0  0  0  0  0  0  0  0  0  0
   -2.7603   -0.7593   -0.2692 C   0  0  0  0  0  0  0  0  0  0  0  0
   -3.7985   -0.3149    0.2893 O   0  0  0  0  0  0  0  0  0  0  0  0
   -2.8798   -1.7735   -1.2119 O   0  0  0  0  0  0  0  0  0  0  0  0
   -1.7226    3.0037    1.3928 H   0  0  0  0  0  0  0  0  0  0  0  0
   -2.8120    1.6599    1.9078 H   0  0  0  0  0  0  0  0  0  0  0  0
   -2.8960    2.3054    0.2133 H   0  0  0  0  0  0  0  0  0  0  0  0
    3.2609    2.9590    1.5463 H   0  0  0  0  0  0  0  0  0  0  0  0
    3.6208   -1.4242   -0.3710 H   0  0  0  0  0  0  0  0  0  0  0  0
    2.0076   -3.1256   -1.1271 H   0  0  0  0  0  0  0  0  0  0  0  0
   -3.7849   -2.1650   -1.4438 H   0  0  0  0  0  0  0  0  0  0  0  0
  1  2  1  0
  2  3  1  0
  3  4  1  0
  4  5  2  0
  5  6  1  0
  6  7  2  0
  6  8  1  0
  5  9  1  0
  9 10  2  0
 10 11  1  0
 11 12  1  0
 11 13  2  0
 13 14  1  0
 14 15  1  0
 15 16  2  0
 15 17  1  0
 14  2  2  0
 13  4  1  0
  1 18  1  0
  1 19  1  0
  1 20  1  0
  8 21  1  0
  9 22  1  0
 10 23  1  0
 17 24  1  0
M  END
$$$$
