Molecule_20
     RDKit          3D

 23 23  0  0  0  0  0  0  0  0999 V2000
    3.3356   -0.0925    1.0641 C   0  0  0  0  0  0  0  0  0  0  0  0
    2.6771   -1.5880    0.3567 S   0  0  0  0  0  0  0  0  0  0  0  0
    3.7466   -2.2265   -0.4839 O   0  0  0  0  0  0  0  0  0  0  0  0
    2.2759   -2.5494    1.4398 O   0  0  0  0  0  0  0  0  0  0  0  0
    1.3125   -1.2253   -0.6538 N   0  0  0  0  0  0  0  0  0  0  0  0
    0.1316   -0.5321   -0.2052 C   0  0  0  0  0  0  0  0  0  0  0  0
   -0.1698   -0.4048    1.1607 C   0  0  0  0  0  0  0  0  0  0  0  0
   -1.3206    0.2647    1.5709 C   0  0  0  0  0  0  0  0  0  0  0  0
   -2.1942    0.8134    0.6318 C   0  0  0  0  0  0  0  0  0  0  0  0
   -3.3022    1.4541    1.0829 F   0  0  0  0  0  0  0  0  0  0  0  0
   -1.9254    0.6945   -0.7477 C   0  0  0  0  0  0  0  0  0  0  0  0
   -2.8586    1.2765   -1.7507 C   0  0  0  0  0  0  0  0  0  0  0  0
   -2.6322    1.1565   -2.9850 O   0  0  0  0  0  0  0  0  0  0  0  0
   -3.9989    1.9639   -1.3432 O   0  0  0  0  0  0  0  0  0  0  0  0
   -0.7543    0.0132   -1.1548 C   0  0  0  0  0  0  0  0  0  0  0  0
   -0.4602   -0.1149   -2.4749 F   0  0  0  0  0  0  0  0  0  0  0  0
    3.5862    0.6206    0.2519 H   0  0  0  0  0  0  0  0  0  0  0  0
    2.5898    0.3715    1.7403 H   0  0  0  0  0  0  0  0  0  0  0  0
    4.2531   -0.3288    1.6413 H   0  0  0  0  0  0  0  0  0  0  0  0
    1.4150   -1.4560   -1.6671 H   0  0  0  0  0  0  0  0  0  0  0  0
    0.4703   -0.8280    1.9197 H   0  0  0  0  0  0  0  0  0  0  0  0
   -1.5394    0.3554    2.6273 H   0  0  0  0  0  0  0  0  0  0  0  0
   -4.6377    2.3620   -2.0213 H   0  0  0  0  0  0  0  0  0  0  0  0
  1  2  1  0
  2  3  2  0
  2  4  2  0
  2  5  1  0
  5  6  1  0
  6  7  2  0
  7  8  1  0
  8  9  2  0
  9 10  1  0
  9 11  1  0
 11 12  1  0
 12 13  2  0
 12 14  1  0
 11 15  2  0
 15 16  1  0
 15  6  1  0
  1 17  1  0
  1 18  1  0
  1 19  1  0
  5 20  1  0
  7 21  1  0
  8 22  1  0
 14 23  1  0
M  END
$$$$
