Molecule_28
     RDKit          3D

 25 25  0  0  0  0  0  0  0  0999 V2000
    2.9923   -1.1982    0.6903 C   0  0  0  0  0  0  0  0  0  0  0  0
    1.8247   -0.6655   -0.1237 C   0  0  0  0  0  0  0  0  0  0  0  0
    0.7501   -0.3303    0.7479 O   0  0  0  0  0  0  0  0  0  0  0  0
   -0.4548    0.1748    0.2530 C   0  0  0  0  0  0  0  0  0  0  0  0
   -0.6582    1.5746    0.1918 C   0  0  0  0  0  0  0  0  0  0  0  0
    0.3516    2.5348    0.7088 C   0  0  0  0  0  0  0  0  0  0  0  0
    0.2408    3.7662    0.4604 O   0  0  0  0  0  0  0  0  0  0  0  0
    1.4218    2.0985    1.4851 O   0  0  0  0  0  0  0  0  0  0  0  0
   -1.8451    2.0665   -0.3771 C   0  0  0  0  0  0  0  0  0  0  0  0
   -2.8181    1.1941   -0.8577 C   0  0  0  0  0  0  0  0  0  0  0  0
   -2.6351   -0.1847   -0.7718 C   0  0  0  0  0  0  0  0  0  0  0  0
   -3.6261   -0.9979   -1.2186 F   0  0  0  0  0  0  0  0  0  0  0  0
   -1.4576   -0.7143   -0.2067 C   0  0  0  0  0  0  0  0  0  0  0  0
   -1.2869   -2.1853   -0.0877 C   0  0  0  0  0  0  0  0  0  0  0  0
   -1.9388   -2.9664   -0.8322 O   0  0  0  0  0  0  0  0  0  0  0  0
   -0.4153   -2.7224    0.8560 O   0  0  0  0  0  0  0  0  0  0  0  0
    3.8332   -1.4590    0.0137 H   0  0  0  0  0  0  0  0  0  0  0  0
    3.3348   -0.4263    1.4116 H   0  0  0  0  0  0  0  0  0  0  0  0
    2.6818   -2.1072    1.2478 H   0  0  0  0  0  0  0  0  0  0  0  0
    2.1483    0.2381   -0.6844 H   0  0  0  0  0  0  0  0  0  0  0  0
    1.4974   -1.4412   -0.8492 H   0  0  0  0  0  0  0  0  0  0  0  0
    2.1094    2.7524    1.8397 H   0  0  0  0  0  0  0  0  0  0  0  0
   -2.0280    3.1317   -0.4447 H   0  0  0  0  0  0  0  0  0  0  0  0
   -3.7287    1.5912   -1.2880 H   0  0  0  0  0  0  0  0  0  0  0  0
   -0.2935   -3.7244    0.9422 H   0  0  0  0  0  0  0  0  0  0  0  0
  1  2  1  0
  2  3  1  0
  3  4  1  0
  4  5  2  0
  5  6  1  0
  6  7  2  0
  6  8  1  0
  5  9  1  0
  9 10  2  0
 10 11  1  0
 11 12  1  0
 11 13  2  0
 13 14  1  0
 14 15  2  0
 14 16  1  0
 13  4  1  0
  1 17  1  0
  1 18  1  0
  1 19  1  0
  2 20  1  0
  2 21  1  0
  8 22  1  0
  9 23  1  0
 10 24  1  0
 16 25  1  0
M  END
$$$$
