Molecule_7
     RDKit          3D

 24 25  0  0  0  0  0  0  0  0999 V2000
    3.6943   -0.2895    1.3017 C   0  0  0  0  0  0  0  0  0  0  0  0
    2.2937   -0.6989    0.9814 C   0  0  0  0  0  0  0  0  0  0  0  0
    1.8056   -1.8904    1.2349 O   0  0  0  0  0  0  0  0  0  0  0  0
    0.5692   -1.9881    0.8414 N   0  0  0  0  0  0  0  0  0  0  0  0
    0.2239   -0.8008    0.3037 C   0  0  0  0  0  0  0  0  0  0  0  0
   -1.1330   -0.5165   -0.2063 C   0  0  0  0  0  0  0  0  0  0  0  0
   -1.7999    0.6648    0.1624 C   0  0  0  0  0  0  0  0  0  0  0  0
   -3.0963    0.9172   -0.2968 C   0  0  0  0  0  0  0  0  0  0  0  0
   -3.7308    2.0611    0.0599 F   0  0  0  0  0  0  0  0  0  0  0  0
   -3.7420   -0.0128   -1.1156 C   0  0  0  0  0  0  0  0  0  0  0  0
   -3.0950   -1.1989   -1.4710 C   0  0  0  0  0  0  0  0  0  0  0  0
   -1.7981   -1.4571   -1.0142 C   0  0  0  0  0  0  0  0  0  0  0  0
   -1.1863   -2.6133   -1.3768 F   0  0  0  0  0  0  0  0  0  0  0  0
    1.3117    0.0627    0.3702 C   0  0  0  0  0  0  0  0  0  0  0  0
    1.4484    1.4263   -0.1802 C   0  0  0  0  0  0  0  0  0  0  0  0
    0.6138    1.8634   -1.0162 O   0  0  0  0  0  0  0  0  0  0  0  0
    2.5182    2.2301    0.2008 O   0  0  0  0  0  0  0  0  0  0  0  0
    4.2150    0.0277    0.3742 H   0  0  0  0  0  0  0  0  0  0  0  0
    4.2453   -1.1438    1.7475 H   0  0  0  0  0  0  0  0  0  0  0  0
    3.6831    0.5483    2.0294 H   0  0  0  0  0  0  0  0  0  0  0  0
   -1.3230    1.3828    0.8181 H   0  0  0  0  0  0  0  0  0  0  0  0
   -4.7459    0.1819   -1.4703 H   0  0  0  0  0  0  0  0  0  0  0  0
   -3.6003   -1.9196   -2.1010 H   0  0  0  0  0  0  0  0  0  0  0  0
    2.6283    3.1634   -0.1772 H   0  0  0  0  0  0  0  0  0  0  0  0
  1  2  1  0
  2  3  1  0
  3  4  1  0
  4  5  2  0
  5  6  1  0
  6  7  2  0
  7  8  1  0
  8  9  1  0
  8 10  2  0
 10 11  1  0
 11 12  2  0
 12 13  1  0
  5 14  1  0
 14 15  1  0
 15 16  2  0
 15 17  1  0
 14  2  2  0
 12  6  1  0
  1 18  1  0
  1 19  1  0
  1 20  1  0
  7 21  1  0
 10 22  1  0
 11 23  1  0
 17 24  1  0
M  END
$$$$
