Molecule_26
     RDKit          3D

 28 30  0  0  0  0  0  0  0  0999 V2000
   -4.1814    1.5628    1.3609 O   0  0  0  0  0  0  0  0  0  0  0  0
   -3.0362    1.4481    0.8464 C   0  0  0  0  0  0  0  0  0  0  0  0
   -2.3517    2.6023    0.4747 O   0  0  0  0  0  0  0  0  0  0  0  0
   -2.4321    0.1025    0.6391 C   0  0  0  0  0  0  0  0  0  0  0  0
   -3.2183   -1.0612    0.7912 C   0  0  0  0  0  0  0  0  0  0  0  0
   -4.5337   -0.9849    1.1176 F   0  0  0  0  0  0  0  0  0  0  0  0
   -2.6603   -2.3244    0.5915 C   0  0  0  0  0  0  0  0  0  0  0  0
   -1.3182   -2.4555    0.2459 C   0  0  0  0  0  0  0  0  0  0  0  0
   -0.5121   -1.3209    0.0907 C   0  0  0  0  0  0  0  0  0  0  0  0
   -1.0684   -0.0381    0.2827 C   0  0  0  0  0  0  0  0  0  0  0  0
   -0.2665    1.0960    0.1152 O   0  0  0  0  0  0  0  0  0  0  0  0
    1.0565    1.0323   -0.3232 C   0  0  0  0  0  0  0  0  0  0  0  0
    1.7578    2.2199   -0.5598 C   0  0  0  0  0  0  0  0  0  0  0  0
    3.0764    2.1774   -1.0204 C   0  0  0  0  0  0  0  0  0  0  0  0
    3.6992    0.9470   -1.2440 C   0  0  0  0  0  0  0  0  0  0  0  0
    3.0062   -0.2428   -1.0025 C   0  0  0  0  0  0  0  0  0  0  0  0
    1.6804   -0.2092   -0.5395 C   0  0  0  0  0  0  0  0  0  0  0  0
    0.9579   -1.5023   -0.2336 C   0  0  0  0  0  0  0  0  0  0  0  0
    1.6025   -2.1730    0.8200 O   0  0  0  0  0  0  0  0  0  0  0  0
   -2.7604    3.5187    0.6142 H   0  0  0  0  0  0  0  0  0  0  0  0
   -3.2726   -3.2095    0.7081 H   0  0  0  0  0  0  0  0  0  0  0  0
   -0.9018   -3.4456    0.1057 H   0  0  0  0  0  0  0  0  0  0  0  0
    1.2774    3.1755   -0.3925 H   0  0  0  0  0  0  0  0  0  0  0  0
    3.6149    3.0979   -1.2053 H   0  0  0  0  0  0  0  0  0  0  0  0
    4.7209    0.9151   -1.5998 H   0  0  0  0  0  0  0  0  0  0  0  0
    3.5033   -1.1905   -1.1689 H   0  0  0  0  0  0  0  0  0  0  0  0
    1.0242   -2.1435   -1.1397 H   0  0  0  0  0  0  0  0  0  0  0  0
    1.5362   -1.5942    1.6253 H   0  0  0  0  0  0  0  0  0  0  0  0
  1  2  2  0
  2  3  1  0
  2  4  1  0
  4  5  2  0
  5  6  1  0
  5  7  1  0
  7  8  2  0
  8  9  1  0
  9 10  2  0
 10 11  1  0
 11 12  1  0
 12 13  2  0
 13 14  1  0
 14 15  2  0
 15 16  1  0
 16 17  2  0
 17 18  1  0
 18 19  1  0
 10  4  1  0
 17 12  1  0
 18  9  1  0
  3 20  1  0
  7 21  1  0
  8 22  1  0
 13 23  1  0
 14 24  1  0
 15 25  1  0
 16 26  1  0
 18 27  1  0
 19 28  1  0
M  END
$$$$
