Molecule_24
     RDKit          3D

 29 29  0  0  0  0  0  0  0  0999 V2000
   -2.3503   -1.3264    1.8118 C   0  0  0  0  0  0  0  0  0  0  0  0
   -1.6027   -0.8238    0.5743 C   0  0  0  0  0  0  0  0  0  0  0  0
   -2.3633    0.3315   -0.1124 C   0  0  0  0  0  0  0  0  0  0  0  0
   -3.6139   -0.1474   -0.8600 C   0  0  0  0  0  0  0  0  0  0  0  0
   -4.1825    0.9132   -1.5787 O   0  0  0  0  0  0  0  0  0  0  0  0
   -0.3099   -0.3750    0.9891 O   0  0  0  0  0  0  0  0  0  0  0  0
    0.8000   -0.1697    0.1506 C   0  0  0  0  0  0  0  0  0  0  0  0
    0.7754   -0.4616   -1.2246 C   0  0  0  0  0  0  0  0  0  0  0  0
    1.9059   -0.2405   -2.0091 C   0  0  0  0  0  0  0  0  0  0  0  0
    3.0744    0.2699   -1.4408 C   0  0  0  0  0  0  0  0  0  0  0  0
    4.1481    0.4675   -2.2469 F   0  0  0  0  0  0  0  0  0  0  0  0
    3.1264    0.5687   -0.0627 C   0  0  0  0  0  0  0  0  0  0  0  0
    4.3704    1.1121    0.5466 C   0  0  0  0  0  0  0  0  0  0  0  0
    4.4184    1.3811    1.7772 O   0  0  0  0  0  0  0  0  0  0  0  0
    5.5035    1.3330   -0.2321 O   0  0  0  0  0  0  0  0  0  0  0  0
    1.9735    0.3409    0.7235 C   0  0  0  0  0  0  0  0  0  0  0  0
    1.9744    0.6125    2.0542 F   0  0  0  0  0  0  0  0  0  0  0  0
   -1.7412   -2.1000    2.3258 H   0  0  0  0  0  0  0  0  0  0  0  0
   -2.5341   -0.4933    2.5235 H   0  0  0  0  0  0  0  0  0  0  0  0
   -3.3184   -1.7888    1.5292 H   0  0  0  0  0  0  0  0  0  0  0  0
   -1.4922   -1.6864   -0.1185 H   0  0  0  0  0  0  0  0  0  0  0  0
   -2.6482    1.0990    0.6402 H   0  0  0  0  0  0  0  0  0  0  0  0
   -1.6946    0.8286   -0.8467 H   0  0  0  0  0  0  0  0  0  0  0  0
   -4.3616   -0.5681   -0.1517 H   0  0  0  0  0  0  0  0  0  0  0  0
   -3.3331   -0.9457   -1.5795 H   0  0  0  0  0  0  0  0  0  0  0  0
   -4.6445    1.4903   -0.9158 H   0  0  0  0  0  0  0  0  0  0  0  0
   -0.1093   -0.8573   -1.7021 H   0  0  0  0  0  0  0  0  0  0  0  0
    1.8760   -0.4670   -3.0674 H   0  0  0  0  0  0  0  0  0  0  0  0
    6.3532    1.7028    0.1773 H   0  0  0  0  0  0  0  0  0  0  0  0
  1  2  1  0
  2  3  1  0
  3  4  1  0
  4  5  1  0
  2  6  1  0
  6  7  1  0
  7  8  2  0
  8  9  1  0
  9 10  2  0
 10 11  1  0
 10 12  1  0
 12 13  1  0
 13 14  2  0
 13 15  1  0
 12 16  2  0
 16 17  1  0
 16  7  1  0
  1 18  1  0
  1 19  1  0
  1 20  1  0
  2 21  1  0
  3 22  1  0
  3 23  1  0
  4 24  1  0
  4 25  1  0
  5 26  1  0
  8 27  1  0
  9 28  1  0
 15 29  1  0
M  END
$$$$
