Molecule_17
     RDKit          3D

 28 29  0  0  0  0  0  0  0  0999 V2000
    3.0732    1.7043    1.3652 O   0  0  0  0  0  0  0  0  0  0  0  0
    3.5176    0.7865    0.6236 C   0  0  0  0  0  0  0  0  0  0  0  0
    4.8943    0.6116    0.5073 O   0  0  0  0  0  0  0  0  0  0  0  0
    2.5883   -0.0965   -0.1162 C   0  0  0  0  0  0  0  0  0  0  0  0
    3.0881   -1.1167   -0.9405 C   0  0  0  0  0  0  0  0  0  0  0  0
    2.2149   -1.9511   -1.6395 C   0  0  0  0  0  0  0  0  0  0  0  0
    0.8332   -1.7815   -1.5276 C   0  0  0  0  0  0  0  0  0  0  0  0
    0.0136   -2.6114   -2.2219 F   0  0  0  0  0  0  0  0  0  0  0  0
    0.3058   -0.7664   -0.7080 C   0  0  0  0  0  0  0  0  0  0  0  0
   -1.2015   -0.5918   -0.5945 C   0  0  0  0  0  0  0  0  0  0  0  0
   -1.6960    0.8367   -0.8371 C   0  0  0  0  0  0  0  0  0  0  0  0
   -2.2177    0.8940    0.6002 C   0  0  0  0  0  0  0  0  0  0  0  0
   -3.7111    1.0522    0.7006 C   0  0  0  0  0  0  0  0  0  0  0  0
   -4.4853    0.2885    0.0614 O   0  0  0  0  0  0  0  0  0  0  0  0
   -4.2399    2.0532    1.5086 O   0  0  0  0  0  0  0  0  0  0  0  0
   -1.7285   -0.5357    0.8418 C   0  0  0  0  0  0  0  0  0  0  0  0
    1.1962    0.0722   -0.0053 C   0  0  0  0  0  0  0  0  0  0  0  0
    5.5391    1.2104    1.0092 H   0  0  0  0  0  0  0  0  0  0  0  0
    4.1544   -1.2717   -1.0465 H   0  0  0  0  0  0  0  0  0  0  0  0
    2.6126   -2.7345   -2.2721 H   0  0  0  0  0  0  0  0  0  0  0  0
   -1.7814   -1.3215   -1.2023 H   0  0  0  0  0  0  0  0  0  0  0  0
   -0.8878    1.5775   -1.0227 H   0  0  0  0  0  0  0  0  0  0  0  0
   -2.4937    0.8762   -1.6118 H   0  0  0  0  0  0  0  0  0  0  0  0
   -1.6659    1.6368    1.2182 H   0  0  0  0  0  0  0  0  0  0  0  0
   -5.2416    2.1788    1.5919 H   0  0  0  0  0  0  0  0  0  0  0  0
   -0.9391   -0.5853    1.6233 H   0  0  0  0  0  0  0  0  0  0  0  0
   -2.5446   -1.2717    1.0159 H   0  0  0  0  0  0  0  0  0  0  0  0
    0.8027    0.8568    0.6284 H   0  0  0  0  0  0  0  0  0  0  0  0
  1  2  2  0
  2  3  1  0
  2  4  1  0
  4  5  2  0
  5  6  1  0
  6  7  2  0
  7  8  1  0
  7  9  1  0
  9 10  1  0
 10 11  1  0
 11 12  1  0
 12 13  1  0
 13 14  2  0
 13 15  1  0
 12 16  1  0
  9 17  2  0
 17  4  1  0
 16 10  1  0
  3 18  1  0
  5 19  1  0
  6 20  1  0
 10 21  1  0
 11 22  1  0
 11 23  1  0
 12 24  1  0
 15 25  1  0
 16 26  1  0
 16 27  1  0
 17 28  1  0
M  END
$$$$
