Molecule_1
     RDKit          3D

 37 39  0  0  0  0  0  0  0  0999 V2000
    6.2983    2.0551   -1.8424 C   0  0  0  0  0  0  0  0  0  0  0  0
    5.5989    1.6836   -0.6591 O   0  0  0  0  0  0  0  0  0  0  0  0
    4.3593    1.0270   -0.6450 C   0  0  0  0  0  0  0  0  0  0  0  0
    3.7825    0.7218    0.5919 C   0  0  0  0  0  0  0  0  0  0  0  0
    2.5484    0.0691    0.6606 C   0  0  0  0  0  0  0  0  0  0  0  0
    1.8658   -0.2921   -0.5142 C   0  0  0  0  0  0  0  0  0  0  0  0
    0.5554   -0.9826   -0.4458 C   0  0  0  0  0  0  0  0  0  0  0  0
   -0.1089   -1.3222   -1.4972 N   0  0  0  0  0  0  0  0  0  0  0  0
   -1.2803   -1.9314   -1.1323 O   0  0  0  0  0  0  0  0  0  0  0  0
   -1.4220   -2.0459    0.2744 C   0  0  0  0  0  0  0  0  0  0  0  0
   -2.7019   -1.3907    0.7493 C   0  0  0  0  0  0  0  0  0  0  0  0
   -3.5141   -2.0640    1.6723 C   0  0  0  0  0  0  0  0  0  0  0  0
   -4.6861   -1.4762    2.1426 C   0  0  0  0  0  0  0  0  0  0  0  0
   -5.0644   -0.2056    1.7069 C   0  0  0  0  0  0  0  0  0  0  0  0
   -6.2185    0.3223    2.1886 F   0  0  0  0  0  0  0  0  0  0  0  0
   -4.2617    0.5034    0.7868 C   0  0  0  0  0  0  0  0  0  0  0  0
   -4.6573    1.8615    0.3247 C   0  0  0  0  0  0  0  0  0  0  0  0
   -5.6581    2.4428    0.8244 O   0  0  0  0  0  0  0  0  0  0  0  0
   -3.9309    2.5134   -0.6685 O   0  0  0  0  0  0  0  0  0  0  0  0
   -3.0735   -0.1004    0.3152 C   0  0  0  0  0  0  0  0  0  0  0  0
   -2.2659    0.5653   -0.5502 F   0  0  0  0  0  0  0  0  0  0  0  0
   -0.1590   -1.3528    0.8171 C   0  0  0  0  0  0  0  0  0  0  0  0
    2.4469    0.0151   -1.7577 C   0  0  0  0  0  0  0  0  0  0  0  0
    3.6813    0.6681   -1.8243 C   0  0  0  0  0  0  0  0  0  0  0  0
    7.2462    2.5574   -1.5606 H   0  0  0  0  0  0  0  0  0  0  0  0
    5.6861    2.7619   -2.4416 H   0  0  0  0  0  0  0  0  0  0  0  0
    6.5387    1.1527   -2.4432 H   0  0  0  0  0  0  0  0  0  0  0  0
    4.2942    0.9929    1.5067 H   0  0  0  0  0  0  0  0  0  0  0  0
    2.1326   -0.1505    1.6353 H   0  0  0  0  0  0  0  0  0  0  0  0
   -1.4006   -3.1259    0.5414 H   0  0  0  0  0  0  0  0  0  0  0  0
   -3.2407   -3.0487    2.0309 H   0  0  0  0  0  0  0  0  0  0  0  0
   -5.3061   -2.0099    2.8517 H   0  0  0  0  0  0  0  0  0  0  0  0
   -4.1959    3.4382   -0.9862 H   0  0  0  0  0  0  0  0  0  0  0  0
   -0.3896   -0.4407    1.4099 H   0  0  0  0  0  0  0  0  0  0  0  0
    0.4545   -2.0597    1.4161 H   0  0  0  0  0  0  0  0  0  0  0  0
    1.9477   -0.2490   -2.6816 H   0  0  0  0  0  0  0  0  0  0  0  0
    4.0987    0.8890   -2.7972 H   0  0  0  0  0  0  0  0  0  0  0  0
  1  2  1  0
  2  3  1  0
  3  4  2  0
  4  5  1  0
  5  6  2  0
  6  7  1  0
  7  8  2  0
  8  9  1  0
  9 10  1  0
 10 11  1  0
 11 12  2  0
 12 13  1  0
 13 14  2  0
 14 15  1  0
 14 16  1  0
 16 17  1  0
 17 18  2  0
 17 19  1  0
 16 20  2  0
 20 21  1  0
 10 22  1  0
  6 23  1  0
 23 24  2  0
 24  3  1  0
 22  7  1  0
 20 11  1  0
  1 25  1  0
  1 26  1  0
  1 27  1  0
  4 28  1  0
  5 29  1  0
 10 30  1  0
 12 31  1  0
 13 32  1  0
 19 33  1  0
 22 34  1  0
 22 35  1  0
 23 36  1  0
 24 37  1  0
M  END
$$$$
