Molecule_29
     RDKit          3D

 26 27  0  0  0  0  0  0  0  0999 V2000
    3.0022    1.6272   -0.2592 N   0  0  0  0  0  0  0  0  0  0  0  0
    2.7488    0.8567   -1.4338 C   0  0  0  0  0  0  0  0  0  0  0  0
    2.7980    1.4082   -2.5655 O   0  0  0  0  0  0  0  0  0  0  0  0
    2.3773   -0.5893   -1.3255 C   0  0  0  0  0  0  0  0  0  0  0  0
    0.8665   -0.7197   -1.1101 C   0  0  0  0  0  0  0  0  0  0  0  0
    0.4199   -2.0515   -0.5267 C   0  0  0  0  0  0  0  0  0  0  0  0
    0.4136   -0.7975    0.3465 C   0  0  0  0  0  0  0  0  0  0  0  0
   -0.9470   -0.2124    0.6167 C   0  0  0  0  0  0  0  0  0  0  0  0
   -1.9508   -1.0040    1.1996 C   0  0  0  0  0  0  0  0  0  0  0  0
   -3.2028   -0.4537    1.4917 C   0  0  0  0  0  0  0  0  0  0  0  0
   -4.1708   -1.2267    2.0428 F   0  0  0  0  0  0  0  0  0  0  0  0
   -3.4546    0.8942    1.2224 C   0  0  0  0  0  0  0  0  0  0  0  0
   -2.4526    1.6958    0.6692 C   0  0  0  0  0  0  0  0  0  0  0  0
   -1.1984    1.1505    0.3749 C   0  0  0  0  0  0  0  0  0  0  0  0
   -0.2306    1.9512   -0.1390 F   0  0  0  0  0  0  0  0  0  0  0  0
    2.9432    1.1908    0.6874 H   0  0  0  0  0  0  0  0  0  0  0  0
    3.2424    2.6404   -0.3354 H   0  0  0  0  0  0  0  0  0  0  0  0
    2.6493   -1.1136   -2.2666 H   0  0  0  0  0  0  0  0  0  0  0  0
    2.9593   -1.0577   -0.5013 H   0  0  0  0  0  0  0  0  0  0  0  0
    0.1594   -0.2869   -1.8517 H   0  0  0  0  0  0  0  0  0  0  0  0
   -0.5698   -2.3913   -0.9008 H   0  0  0  0  0  0  0  0  0  0  0  0
    1.2328   -2.7693   -0.2853 H   0  0  0  0  0  0  0  0  0  0  0  0
    1.1969   -0.7586    1.1334 H   0  0  0  0  0  0  0  0  0  0  0  0
   -1.7628   -2.0463    1.4261 H   0  0  0  0  0  0  0  0  0  0  0  0
   -4.4229    1.3209    1.4503 H   0  0  0  0  0  0  0  0  0  0  0  0
   -2.6467    2.7427    0.4745 H   0  0  0  0  0  0  0  0  0  0  0  0
  1  2  1  0
  2  3  2  0
  2  4  1  0
  4  5  1  0
  5  6  1  0
  6  7  1  0
  7  8  1  0
  8  9  2  0
  9 10  1  0
 10 11  1  0
 10 12  2  0
 12 13  1  0
 13 14  2  0
 14 15  1  0
  7  5  1  0
 14  8  1  0
  1 16  1  0
  1 17  1  0
  4 18  1  0
  4 19  1  0
  5 20  1  0
  6 21  1  0
  6 22  1  0
  7 23  1  0
  9 24  1  0
 12 25  1  0
 13 26  1  0
M  END
$$$$
