Molecule_10
     RDKit          3D

 25 26  0  0  0  0  0  0  0  0999 V2000
    4.9455    0.2402    0.5645 O   0  0  0  0  0  0  0  0  0  0  0  0
    3.7696    0.6668    0.7173 C   0  0  0  0  0  0  0  0  0  0  0  0
    3.5518    1.9026    1.3174 O   0  0  0  0  0  0  0  0  0  0  0  0
    2.6268   -0.1326    0.2649 C   0  0  0  0  0  0  0  0  0  0  0  0
    2.6888   -1.3695   -0.3472 C   0  0  0  0  0  0  0  0  0  0  0  0
    1.3809   -1.7309   -0.5907 C   0  0  0  0  0  0  0  0  0  0  0  0
    0.6023   -0.6882   -0.1151 C   0  0  0  0  0  0  0  0  0  0  0  0
   -0.8792   -0.6214   -0.1361 C   0  0  0  0  0  0  0  0  0  0  0  0
   -1.6087   -1.8151    0.0184 C   0  0  0  0  0  0  0  0  0  0  0  0
   -3.0001   -1.7944    0.1062 C   0  0  0  0  0  0  0  0  0  0  0  0
   -3.6862   -0.5844    0.0448 C   0  0  0  0  0  0  0  0  0  0  0  0
   -2.9874    0.6123   -0.1221 C   0  0  0  0  0  0  0  0  0  0  0  0
   -3.6925    1.7685   -0.2201 F   0  0  0  0  0  0  0  0  0  0  0  0
   -1.5815    0.6123   -0.2305 C   0  0  0  0  0  0  0  0  0  0  0  0
   -0.8925    1.8956   -0.4993 C   0  0  0  0  0  0  0  0  0  0  0  0
    0.0744    1.9449   -1.3065 O   0  0  0  0  0  0  0  0  0  0  0  0
   -1.3374    3.0670    0.1073 O   0  0  0  0  0  0  0  0  0  0  0  0
    1.3764    0.2454    0.3920 O   0  0  0  0  0  0  0  0  0  0  0  0
    4.3285    2.4696    1.6361 H   0  0  0  0  0  0  0  0  0  0  0  0
    3.5760   -1.9398   -0.5891 H   0  0  0  0  0  0  0  0  0  0  0  0
    1.0425   -2.6411   -1.0676 H   0  0  0  0  0  0  0  0  0  0  0  0
   -1.1002   -2.7670    0.1054 H   0  0  0  0  0  0  0  0  0  0  0  0
   -3.5474   -2.7195    0.2345 H   0  0  0  0  0  0  0  0  0  0  0  0
   -4.7663   -0.5748    0.1163 H   0  0  0  0  0  0  0  0  0  0  0  0
   -0.8842    3.9536   -0.0790 H   0  0  0  0  0  0  0  0  0  0  0  0
  1  2  2  0
  2  3  1  0
  2  4  1  0
  4  5  2  0
  5  6  1  0
  6  7  2  0
  7  8  1  0
  8  9  2  0
  9 10  1  0
 10 11  2  0
 11 12  1  0
 12 13  1  0
 12 14  2  0
 14 15  1  0
 15 16  2  0
 15 17  1  0
  7 18  1  0
 18  4  1  0
 14  8  1  0
  3 19  1  0
  5 20  1  0
  6 21  1  0
  9 22  1  0
 10 23  1  0
 11 24  1  0
 17 25  1  0
M  END
$$$$
