Molecule_4
     RDKit          3D

 38 40  0  0  0  0  0  0  0  0999 V2000
    4.6092   -0.5530    3.2950 O   0  0  0  0  0  0  0  0  0  0  0  0
    4.6029   -0.3967    2.0438 C   0  0  0  0  0  0  0  0  0  0  0  0
    5.7996   -0.4980    1.3389 O   0  0  0  0  0  0  0  0  0  0  0  0
    3.3384   -0.1093    1.3305 C   0  0  0  0  0  0  0  0  0  0  0  0
    2.1295   -0.0006    2.0341 C   0  0  0  0  0  0  0  0  0  0  0  0
    0.9373    0.2609    1.3580 C   0  0  0  0  0  0  0  0  0  0  0  0
    0.9172    0.3992   -0.0415 C   0  0  0  0  0  0  0  0  0  0  0  0
    2.1422    0.3476   -0.7504 C   0  0  0  0  0  0  0  0  0  0  0  0
    3.3337    0.0667   -0.0622 C   0  0  0  0  0  0  0  0  0  0  0  0
    2.1944    0.5164   -2.2495 C   0  0  0  0  0  0  0  0  0  0  0  0
    0.9893    1.2913   -2.7819 C   0  0  0  0  0  0  0  0  0  0  0  0
   -0.3018    0.6519   -2.2787 C   0  0  0  0  0  0  0  0  0  0  0  0
   -0.3966    0.7345   -0.7418 C   0  0  0  0  0  0  0  0  0  0  0  0
   -1.5403   -0.1482   -0.2627 C   0  0  0  0  0  0  0  0  0  0  0  0
   -1.3940   -1.5453   -0.2596 C   0  0  0  0  0  0  0  0  0  0  0  0
   -2.4382   -2.3648    0.1603 C   0  0  0  0  0  0  0  0  0  0  0  0
   -3.6492   -1.8099    0.5750 C   0  0  0  0  0  0  0  0  0  0  0  0
   -4.6354   -2.6498    0.9807 F   0  0  0  0  0  0  0  0  0  0  0  0
   -3.8342   -0.4101    0.5693 C   0  0  0  0  0  0  0  0  0  0  0  0
   -5.1272    0.1852    1.0045 C   0  0  0  0  0  0  0  0  0  0  0  0
   -6.1002   -0.5528    1.3173 O   0  0  0  0  0  0  0  0  0  0  0  0
   -5.2853    1.5667    1.0755 O   0  0  0  0  0  0  0  0  0  0  0  0
   -2.7688    0.4151    0.1406 C   0  0  0  0  0  0  0  0  0  0  0  0
   -2.9224    1.7643    0.1041 F   0  0  0  0  0  0  0  0  0  0  0  0
    6.6705   -0.6946    1.8176 H   0  0  0  0  0  0  0  0  0  0  0  0
    2.1035   -0.1153    3.1106 H   0  0  0  0  0  0  0  0  0  0  0  0
    0.0231    0.3533    1.9312 H   0  0  0  0  0  0  0  0  0  0  0  0
    4.2600   -0.0076   -0.6194 H   0  0  0  0  0  0  0  0  0  0  0  0
    2.2267   -0.4897   -2.7211 H   0  0  0  0  0  0  0  0  0  0  0  0
    3.1192    1.0614   -2.5397 H   0  0  0  0  0  0  0  0  0  0  0  0
    1.0426    2.3520   -2.4507 H   0  0  0  0  0  0  0  0  0  0  0  0
    1.0031    1.2740   -3.8930 H   0  0  0  0  0  0  0  0  0  0  0  0
   -0.3354   -0.4069   -2.6201 H   0  0  0  0  0  0  0  0  0  0  0  0
   -1.1702    1.1798   -2.7300 H   0  0  0  0  0  0  0  0  0  0  0  0
   -0.6067    1.7961   -0.4865 H   0  0  0  0  0  0  0  0  0  0  0  0
   -0.4654   -2.0004   -0.5816 H   0  0  0  0  0  0  0  0  0  0  0  0
   -2.3078   -3.4395    0.1635 H   0  0  0  0  0  0  0  0  0  0  0  0
   -6.1634    1.9764    1.3715 H   0  0  0  0  0  0  0  0  0  0  0  0
  1  2  2  0
  2  3  1  0
  2  4  1  0
  4  5  2  0
  5  6  1  0
  6  7  2  0
  7  8  1  0
  8  9  2  0
  8 10  1  0
 10 11  1  0
 11 12  1  0
 12 13  1  0
 13 14  1  0
 14 15  2  0
 15 16  1  0
 16 17  2  0
 17 18  1  0
 17 19  1  0
 19 20  1  0
 20 21  2  0
 20 22  1  0
 19 23  2  0
 23 24  1  0
  9  4  1  0
 23 14  1  0
 13  7  1  0
  3 25  1  0
  5 26  1  0
  6 27  1  0
  9 28  1  0
 10 29  1  0
 10 30  1  0
 11 31  1  0
 11 32  1  0
 12 33  1  0
 12 34  1  0
 13 35  1  0
 15 36  1  0
 16 37  1  0
 22 38  1  0
M  END
$$$$
