Molecule_39
     RDKit          3D

 21 21  0  0  0  0  0  0  0  0999 V2000
    2.6335    0.5527   -0.4093 C   0  0  0  0  0  0  0  0  0  0  0  0
    1.7981   -0.7814    0.4263 S   0  0  0  0  0  0  0  0  0  0  0  0
    2.3871   -2.0691   -0.0791 O   0  0  0  0  0  0  0  0  0  0  0  0
    2.0398   -0.7009    1.9071 O   0  0  0  0  0  0  0  0  0  0  0  0
    0.0546   -0.7422    0.0876 C   0  0  0  0  0  0  0  0  0  0  0  0
   -0.5302   -1.8773   -0.5010 C   0  0  0  0  0  0  0  0  0  0  0  0
   -1.8762   -1.8811   -0.8645 C   0  0  0  0  0  0  0  0  0  0  0  0
   -2.6599   -0.7507   -0.6520 C   0  0  0  0  0  0  0  0  0  0  0  0
   -2.1060    0.3870   -0.0636 C   0  0  0  0  0  0  0  0  0  0  0  0
   -2.9066    1.4618    0.1549 F   0  0  0  0  0  0  0  0  0  0  0  0
   -0.7512    0.4060    0.3265 C   0  0  0  0  0  0  0  0  0  0  0  0
   -0.2292    1.6286    0.9744 C   0  0  0  0  0  0  0  0  0  0  0  0
    0.5072    1.5515    1.9930 O   0  0  0  0  0  0  0  0  0  0  0  0
   -0.5900    2.8809    0.4850 O   0  0  0  0  0  0  0  0  0  0  0  0
    3.7293    0.3831   -0.3710 H   0  0  0  0  0  0  0  0  0  0  0  0
    2.4047    1.5202    0.0794 H   0  0  0  0  0  0  0  0  0  0  0  0
    2.3060    0.5884   -1.4688 H   0  0  0  0  0  0  0  0  0  0  0  0
    0.0567   -2.7656   -0.6932 H   0  0  0  0  0  0  0  0  0  0  0  0
   -2.3110   -2.7619   -1.3194 H   0  0  0  0  0  0  0  0  0  0  0  0
   -3.7038   -0.7583   -0.9385 H   0  0  0  0  0  0  0  0  0  0  0  0
   -0.2530    3.7283    0.9260 H   0  0  0  0  0  0  0  0  0  0  0  0
  1  2  1  0
  2  3  2  0
  2  4  2  0
  2  5  1  0
  5  6  2  0
  6  7  1  0
  7  8  2  0
  8  9  1  0
  9 10  1  0
  9 11  2  0
 11 12  1  0
 12 13  2  0
 12 14  1  0
 11  5  1  0
  1 15  1  0
  1 16  1  0
  1 17  1  0
  6 18  1  0
  7 19  1  0
  8 20  1  0
 14 21  1  0
M  END
$$$$
