Molecule_12
     RDKit          3D

 25 25  0  0  0  0  0  0  0  0999 V2000
    2.4957   -1.5481    1.0217 C   0  0  0  0  0  0  0  0  0  0  0  0
    1.6276   -0.5620    0.2466 C   0  0  0  0  0  0  0  0  0  0  0  0
    0.2770   -1.0257    0.2451 O   0  0  0  0  0  0  0  0  0  0  0  0
   -0.7907   -0.2188   -0.1628 C   0  0  0  0  0  0  0  0  0  0  0  0
   -1.3813   -0.4777   -1.4036 C   0  0  0  0  0  0  0  0  0  0  0  0
   -2.4177    0.3254   -1.8740 C   0  0  0  0  0  0  0  0  0  0  0  0
   -2.8859    1.3876   -1.1017 C   0  0  0  0  0  0  0  0  0  0  0  0
   -3.9025    2.1530   -1.5730 F   0  0  0  0  0  0  0  0  0  0  0  0
   -2.3266    1.6496    0.1572 C   0  0  0  0  0  0  0  0  0  0  0  0
   -3.0282    2.9548    1.1144 Cl  0  0  0  0  0  0  0  0  0  0  0  0
   -1.2704    0.8399    0.6454 C   0  0  0  0  0  0  0  0  0  0  0  0
   -0.6957    1.0562    1.9944 C   0  0  0  0  0  0  0  0  0  0  0  0
   -0.5508    2.2216    2.4515 O   0  0  0  0  0  0  0  0  0  0  0  0
   -0.2928   -0.0324    2.7631 O   0  0  0  0  0  0  0  0  0  0  0  0
    2.1285   -0.4320   -1.1621 C   0  0  0  0  0  0  0  0  0  0  0  0
    2.7372    0.6109   -1.5220 O   0  0  0  0  0  0  0  0  0  0  0  0
    1.9414   -1.4736   -2.0661 O   0  0  0  0  0  0  0  0  0  0  0  0
    3.5509   -1.2001    1.0405 H   0  0  0  0  0  0  0  0  0  0  0  0
    2.1318   -1.6248    2.0682 H   0  0  0  0  0  0  0  0  0  0  0  0
    2.4522   -2.5560    0.5556 H   0  0  0  0  0  0  0  0  0  0  0  0
    1.6873    0.4259    0.7541 H   0  0  0  0  0  0  0  0  0  0  0  0
   -1.0198   -1.2953   -2.0144 H   0  0  0  0  0  0  0  0  0  0  0  0
   -2.8598    0.1227   -2.8411 H   0  0  0  0  0  0  0  0  0  0  0  0
    0.1136    0.1008    3.6813 H   0  0  0  0  0  0  0  0  0  0  0  0
    2.2788   -1.4017   -3.0185 H   0  0  0  0  0  0  0  0  0  0  0  0
  1  2  1  0
  2  3  1  0
  3  4  1  0
  4  5  2  0
  5  6  1  0
  6  7  2  0
  7  8  1  0
  7  9  1  0
  9 10  1  0
  9 11  2  0
 11 12  1  0
 12 13  2  0
 12 14  1  0
  2 15  1  0
 15 16  2  0
 15 17  1  0
 11  4  1  0
  1 18  1  0
  1 19  1  0
  1 20  1  0
  2 21  1  0
  5 22  1  0
  6 23  1  0
 14 24  1  0
 17 25  1  0
M  END
$$$$
