Molecule_32
     RDKit          3D

 22 22  0  0  0  0  0  0  0  0999 V2000
    3.1393   -2.3067    1.3452 O   0  0  0  0  0  0  0  0  0  0  0  0
    3.1307   -1.1539    0.8365 C   0  0  0  0  0  0  0  0  0  0  0  0
    4.1265   -0.7816   -0.0607 O   0  0  0  0  0  0  0  0  0  0  0  0
    2.0237   -0.2059    1.1531 C   0  0  0  0  0  0  0  0  0  0  0  0
    0.9565   -0.4164    0.2343 O   0  0  0  0  0  0  0  0  0  0  0  0
   -0.2633    0.2855    0.1997 C   0  0  0  0  0  0  0  0  0  0  0  0
   -0.5717    1.3126    1.1248 C   0  0  0  0  0  0  0  0  0  0  0  0
    0.2997    1.6926    2.0911 F   0  0  0  0  0  0  0  0  0  0  0  0
   -1.8022    1.9670    1.0666 C   0  0  0  0  0  0  0  0  0  0  0  0
   -2.7390    1.6196    0.0990 C   0  0  0  0  0  0  0  0  0  0  0  0
   -2.4562    0.6147   -0.8252 C   0  0  0  0  0  0  0  0  0  0  0  0
   -3.3908    0.3262   -1.7664 F   0  0  0  0  0  0  0  0  0  0  0  0
   -1.2183   -0.0629   -0.7919 C   0  0  0  0  0  0  0  0  0  0  0  0
   -0.9367   -1.1289   -1.7920 C   0  0  0  0  0  0  0  0  0  0  0  0
    0.2445   -1.5085   -2.0150 O   0  0  0  0  0  0  0  0  0  0  0  0
   -1.9774   -1.7209   -2.5031 O   0  0  0  0  0  0  0  0  0  0  0  0
    4.8753   -1.4206   -0.3002 H   0  0  0  0  0  0  0  0  0  0  0  0
    1.6721   -0.3877    2.1917 H   0  0  0  0  0  0  0  0  0  0  0  0
    2.4034    0.8341    1.0604 H   0  0  0  0  0  0  0  0  0  0  0  0
   -2.0318    2.7504    1.7777 H   0  0  0  0  0  0  0  0  0  0  0  0
   -3.6894    2.1367    0.0618 H   0  0  0  0  0  0  0  0  0  0  0  0
   -1.7949   -2.4454   -3.1874 H   0  0  0  0  0  0  0  0  0  0  0  0
  1  2  2  0
  2  3  1  0
  2  4  1  0
  4  5  1  0
  5  6  1  0
  6  7  2  0
  7  8  1  0
  7  9  1  0
  9 10  2  0
 10 11  1  0
 11 12  1  0
 11 13  2  0
 13 14  1  0
 14 15  2  0
 14 16  1  0
 13  6  1  0
  3 17  1  0
  4 18  1  0
  4 19  1  0
  9 20  1  0
 10 21  1  0
 16 22  1  0
M  END
$$$$
