Molecule_25
     RDKit          3D

 29 30  0  0  0  0  0  0  0  0999 V2000
   -2.7946   -1.8905   -0.2191 C   0  0  0  0  0  0  0  0  0  0  0  0
   -1.8382   -0.8280   -0.5132 N   0  0  0  0  0  0  0  0  0  0  0  0
   -1.3762   -0.4997   -1.8078 C   0  0  0  0  0  0  0  0  0  0  0  0
   -1.7908   -1.0705   -2.8515 O   0  0  0  0  0  0  0  0  0  0  0  0
   -0.3738    0.5843   -1.8077 C   0  0  0  0  0  0  0  0  0  0  0  0
   -0.1241    0.8422   -0.3013 C   0  0  0  0  0  0  0  0  0  0  0  0
    1.2890    0.4487    0.1058 C   0  0  0  0  0  0  0  0  0  0  0  0
    1.7408   -0.8734   -0.0791 C   0  0  0  0  0  0  0  0  0  0  0  0
    3.0341   -1.2417    0.2992 C   0  0  0  0  0  0  0  0  0  0  0  0
    3.8926   -0.2996    0.8686 C   0  0  0  0  0  0  0  0  0  0  0  0
    5.1470   -0.6623    1.2346 F   0  0  0  0  0  0  0  0  0  0  0  0
    3.4580    1.0145    1.0625 C   0  0  0  0  0  0  0  0  0  0  0  0
    4.2934    1.9269    1.6187 F   0  0  0  0  0  0  0  0  0  0  0  0
    2.1633    1.3912    0.6861 C   0  0  0  0  0  0  0  0  0  0  0  0
    1.7675    2.6736    0.8909 F   0  0  0  0  0  0  0  0  0  0  0  0
   -1.1921    0.0151    0.4809 C   0  0  0  0  0  0  0  0  0  0  0  0
   -2.2077    0.9127    1.1314 C   0  0  0  0  0  0  0  0  0  0  0  0
   -2.1947    1.0770    2.3805 O   0  0  0  0  0  0  0  0  0  0  0  0
   -3.1401    1.5917    0.3518 O   0  0  0  0  0  0  0  0  0  0  0  0
   -2.9678   -1.9641    0.8754 H   0  0  0  0  0  0  0  0  0  0  0  0
   -3.7600   -1.6726   -0.7219 H   0  0  0  0  0  0  0  0  0  0  0  0
   -2.3989   -2.8609   -0.5852 H   0  0  0  0  0  0  0  0  0  0  0  0
   -0.8081    1.4850   -2.2928 H   0  0  0  0  0  0  0  0  0  0  0  0
    0.5407    0.2719   -2.3575 H   0  0  0  0  0  0  0  0  0  0  0  0
   -0.2734    1.9303   -0.1193 H   0  0  0  0  0  0  0  0  0  0  0  0
    1.0893   -1.6199   -0.5157 H   0  0  0  0  0  0  0  0  0  0  0  0
    3.3697   -2.2601    0.1510 H   0  0  0  0  0  0  0  0  0  0  0  0
   -0.7237   -0.6307    1.2580 H   0  0  0  0  0  0  0  0  0  0  0  0
   -3.8214    2.2090    0.7768 H   0  0  0  0  0  0  0  0  0  0  0  0
  1  2  1  0
  2  3  1  0
  3  4  2  0
  3  5  1  0
  5  6  1  0
  6  7  1  0
  7  8  2  0
  8  9  1  0
  9 10  2  0
 10 11  1  0
 10 12  1  0
 12 13  1  0
 12 14  2  0
 14 15  1  0
  6 16  1  0
 16 17  1  0
 17 18  2  0
 17 19  1  0
 16  2  1  0
 14  7  1  0
  1 20  1  0
  1 21  1  0
  1 22  1  0
  5 23  1  0
  5 24  1  0
  6 25  1  0
  8 26  1  0
  9 27  1  0
 16 28  1  0
 19 29  1  0
M  END
$$$$
