Molecule_5
     RDKit          3D

 32 35  0  0  0  0  0  0  0  0999 V2000
   -3.6895    2.8758    1.8598 O   0  0  0  0  0  0  0  0  0  0  0  0
   -4.1932    1.9473    1.1713 C   0  0  0  0  0  0  0  0  0  0  0  0
   -5.5670    1.9360    0.9440 O   0  0  0  0  0  0  0  0  0  0  0  0
   -3.3354    0.8806    0.6093 C   0  0  0  0  0  0  0  0  0  0  0  0
   -3.9033   -0.1557   -0.1574 C   0  0  0  0  0  0  0  0  0  0  0  0
   -3.1033   -1.1761   -0.6844 C   0  0  0  0  0  0  0  0  0  0  0  0
   -1.7252   -1.1726   -0.4627 C   0  0  0  0  0  0  0  0  0  0  0  0
   -1.1475   -0.1270    0.2935 C   0  0  0  0  0  0  0  0  0  0  0  0
   -1.9471    0.8807    0.8428 C   0  0  0  0  0  0  0  0  0  0  0  0
    0.3062   -0.2761    0.5958 C   0  0  0  0  0  0  0  0  0  0  0  0
    1.0670    0.8640    0.9811 O   0  0  0  0  0  0  0  0  0  0  0  0
    2.3647    0.6293    0.5364 C   0  0  0  0  0  0  0  0  0  0  0  0
    3.5131    1.3367    0.8854 C   0  0  0  0  0  0  0  0  0  0  0  0
    3.4530    2.3729    1.7572 F   0  0  0  0  0  0  0  0  0  0  0  0
    4.7357    0.9479    0.3101 C   0  0  0  0  0  0  0  0  0  0  0  0
    4.7821   -0.1175   -0.6139 C   0  0  0  0  0  0  0  0  0  0  0  0
    3.6068   -0.8038   -0.9666 C   0  0  0  0  0  0  0  0  0  0  0  0
    3.6305   -1.7812   -1.9057 F   0  0  0  0  0  0  0  0  0  0  0  0
    2.4155   -0.4357   -0.3413 C   0  0  0  0  0  0  0  0  0  0  0  0
    1.0093   -0.7867   -0.6627 C   0  0  0  0  0  0  0  0  0  0  0  0
    0.5318   -2.2154   -0.9071 C   0  0  0  0  0  0  0  0  0  0  0  0
   -0.9098   -2.1930   -1.0202 O   0  0  0  0  0  0  0  0  0  0  0  0
   -6.1633    2.6616    1.3239 H   0  0  0  0  0  0  0  0  0  0  0  0
   -4.9688   -0.1809   -0.3482 H   0  0  0  0  0  0  0  0  0  0  0  0
   -3.5549   -1.9661   -1.2706 H   0  0  0  0  0  0  0  0  0  0  0  0
   -1.4903    1.6503    1.4528 H   0  0  0  0  0  0  0  0  0  0  0  0
    0.3963   -1.0249    1.4191 H   0  0  0  0  0  0  0  0  0  0  0  0
    5.6442    1.4776    0.5657 H   0  0  0  0  0  0  0  0  0  0  0  0
    5.7241   -0.3915   -1.0710 H   0  0  0  0  0  0  0  0  0  0  0  0
    0.7184   -0.1675   -1.5444 H   0  0  0  0  0  0  0  0  0  0  0  0
    0.8305   -2.8778   -0.0661 H   0  0  0  0  0  0  0  0  0  0  0  0
    0.9694   -2.6113   -1.8471 H   0  0  0  0  0  0  0  0  0  0  0  0
  1  2  2  0
  2  3  1  0
  2  4  1  0
  4  5  2  0
  5  6  1  0
  6  7  2  0
  7  8  1  0
  8  9  2  0
  8 10  1  0
 10 11  1  0
 11 12  1  0
 12 13  2  0
 13 14  1  0
 13 15  1  0
 15 16  2  0
 16 17  1  0
 17 18  1  0
 17 19  2  0
 19 20  1  0
 20 21  1  0
 21 22  1  0
  9  4  1  0
 20 10  1  0
 22  7  1  0
 19 12  1  0
  3 23  1  0
  5 24  1  0
  6 25  1  0
  9 26  1  0
 10 27  1  0
 15 28  1  0
 16 29  1  0
 20 30  1  0
 21 31  1  0
 21 32  1  0
M  END
$$$$
