Molecule_34
     RDKit          3D

 21 22  0  0  0  0  0  0  0  0999 V2000
    2.2370   -1.6764    1.4245 O   0  0  0  0  0  0  0  0  0  0  0  0
    2.3476   -0.9687    0.3874 C   0  0  0  0  0  0  0  0  0  0  0  0
    3.4844   -1.0897   -0.4069 O   0  0  0  0  0  0  0  0  0  0  0  0
    1.3074    0.0273    0.0419 C   0  0  0  0  0  0  0  0  0  0  0  0
    1.7257    1.3148   -0.3445 C   0  0  0  0  0  0  0  0  0  0  0  0
    3.0465    1.6217   -0.4174 F   0  0  0  0  0  0  0  0  0  0  0  0
    0.7929    2.3133   -0.6201 C   0  0  0  0  0  0  0  0  0  0  0  0
   -0.5707    2.0528   -0.5206 C   0  0  0  0  0  0  0  0  0  0  0  0
   -1.0247    0.7752   -0.1619 C   0  0  0  0  0  0  0  0  0  0  0  0
   -2.4051    0.5115   -0.0850 C   0  0  0  0  0  0  0  0  0  0  0  0
   -3.3165    1.4882   -0.3299 F   0  0  0  0  0  0  0  0  0  0  0  0
   -2.8584   -0.7678    0.2374 C   0  0  0  0  0  0  0  0  0  0  0  0
   -1.9484   -1.7964    0.4738 C   0  0  0  0  0  0  0  0  0  0  0  0
   -2.3991   -3.0423    0.7623 F   0  0  0  0  0  0  0  0  0  0  0  0
   -0.5750   -1.5515    0.4057 C   0  0  0  0  0  0  0  0  0  0  0  0
   -0.0857   -0.2593    0.1110 C   0  0  0  0  0  0  0  0  0  0  0  0
    4.2138   -1.7527   -0.1734 H   0  0  0  0  0  0  0  0  0  0  0  0
    1.1301    3.3023   -0.9031 H   0  0  0  0  0  0  0  0  0  0  0  0
   -1.2694    2.8523   -0.7353 H   0  0  0  0  0  0  0  0  0  0  0  0
   -3.9214   -0.9659    0.2917 H   0  0  0  0  0  0  0  0  0  0  0  0
    0.0889   -2.3888    0.5623 H   0  0  0  0  0  0  0  0  0  0  0  0
  1  2  2  0
  2  3  1  0
  2  4  1  0
  4  5  2  0
  5  6  1  0
  5  7  1  0
  7  8  2  0
  8  9  1  0
  9 10  2  0
 10 11  1  0
 10 12  1  0
 12 13  2  0
 13 14  1  0
 13 15  1  0
 15 16  2  0
 16  4  1  0
 16  9  1  0
  3 17  1  0
  7 18  1  0
  8 19  1  0
 12 20  1  0
 15 21  1  0
M  END
$$$$
