Molecule_6
     RDKit          3D

 24 25  0  0  0  0  0  0  0  0999 V2000
    3.4597    1.8950   -0.9157 C   0  0  0  0  0  0  0  0  0  0  0  0
    2.1302    1.6440   -0.2823 C   0  0  0  0  0  0  0  0  0  0  0  0
    1.5601    2.4636    0.5693 O   0  0  0  0  0  0  0  0  0  0  0  0
    0.4181    1.9963    0.9822 N   0  0  0  0  0  0  0  0  0  0  0  0
    0.2235    0.8109    0.3696 C   0  0  0  0  0  0  0  0  0  0  0  0
   -1.0017    0.0081    0.5544 C   0  0  0  0  0  0  0  0  0  0  0  0
   -1.6603   -0.5679   -0.5454 C   0  0  0  0  0  0  0  0  0  0  0  0
   -2.8369   -1.2998   -0.3586 C   0  0  0  0  0  0  0  0  0  0  0  0
   -3.3737   -1.4494    0.9232 C   0  0  0  0  0  0  0  0  0  0  0  0
   -4.5160   -2.1586    1.0995 F   0  0  0  0  0  0  0  0  0  0  0  0
   -2.7378   -0.8592    2.0199 C   0  0  0  0  0  0  0  0  0  0  0  0
   -3.2624   -0.9940    3.2631 F   0  0  0  0  0  0  0  0  0  0  0  0
   -1.5606   -0.1261    1.8359 C   0  0  0  0  0  0  0  0  0  0  0  0
    1.3103    0.5408   -0.4540 C   0  0  0  0  0  0  0  0  0  0  0  0
    1.6030   -0.6820   -1.2280 C   0  0  0  0  0  0  0  0  0  0  0  0
    2.4846   -0.6663   -2.1278 O   0  0  0  0  0  0  0  0  0  0  0  0
    0.9326   -1.8686   -0.9488 O   0  0  0  0  0  0  0  0  0  0  0  0
    4.1583    1.0703   -0.6628 H   0  0  0  0  0  0  0  0  0  0  0  0
    3.3437    1.9608   -2.0175 H   0  0  0  0  0  0  0  0  0  0  0  0
    3.8826    2.8509   -0.5419 H   0  0  0  0  0  0  0  0  0  0  0  0
   -1.2745   -0.4376   -1.5487 H   0  0  0  0  0  0  0  0  0  0  0  0
   -3.3362   -1.7443   -1.2099 H   0  0  0  0  0  0  0  0  0  0  0  0
   -1.0789    0.3275    2.6936 H   0  0  0  0  0  0  0  0  0  0  0  0
    1.1323   -2.7143   -1.4693 H   0  0  0  0  0  0  0  0  0  0  0  0
  1  2  1  0
  2  3  1  0
  3  4  1  0
  4  5  2  0
  5  6  1  0
  6  7  2  0
  7  8  1  0
  8  9  2  0
  9 10  1  0
  9 11  1  0
 11 12  1  0
 11 13  2  0
  5 14  1  0
 14 15  1  0
 15 16  2  0
 15 17  1  0
 14  2  2  0
 13  6  1  0
  1 18  1  0
  1 19  1  0
  1 20  1  0
  7 21  1  0
  8 22  1  0
 13 23  1  0
 17 24  1  0
M  END
$$$$
