Molecule_9
     RDKit          3D

 25 26  0  0  0  0  0  0  0  0999 V2000
    3.7342   -0.5400   -0.6485 C   0  0  0  0  0  0  0  0  0  0  0  0
    2.3192   -0.8295   -0.2571 C   0  0  0  0  0  0  0  0  0  0  0  0
    1.8591   -2.0129    0.2847 C   0  0  0  0  0  0  0  0  0  0  0  0
    0.5787   -1.9041    0.5530 O   0  0  0  0  0  0  0  0  0  0  0  0
    0.1664   -0.7038    0.2094 C   0  0  0  0  0  0  0  0  0  0  0  0
   -1.2352   -0.2714    0.3647 C   0  0  0  0  0  0  0  0  0  0  0  0
   -1.8907   -0.4910    1.5863 C   0  0  0  0  0  0  0  0  0  0  0  0
   -3.2263   -0.1095    1.7492 C   0  0  0  0  0  0  0  0  0  0  0  0
   -3.8488   -0.3117    2.9366 F   0  0  0  0  0  0  0  0  0  0  0  0
   -3.9207    0.4773    0.6879 C   0  0  0  0  0  0  0  0  0  0  0  0
   -3.2841    0.6743   -0.5402 C   0  0  0  0  0  0  0  0  0  0  0  0
   -1.9481    0.2952   -0.7088 C   0  0  0  0  0  0  0  0  0  0  0  0
   -1.3658    0.4468   -1.9255 F   0  0  0  0  0  0  0  0  0  0  0  0
    1.2338    0.0323   -0.2989 C   0  0  0  0  0  0  0  0  0  0  0  0
    1.2535    1.4591   -0.6835 C   0  0  0  0  0  0  0  0  0  0  0  0
    0.3064    2.2214   -0.3537 O   0  0  0  0  0  0  0  0  0  0  0  0
    2.3314    1.9786   -1.3935 O   0  0  0  0  0  0  0  0  0  0  0  0
    4.3768   -1.4277   -0.4685 H   0  0  0  0  0  0  0  0  0  0  0  0
    3.7791   -0.2836   -1.7273 H   0  0  0  0  0  0  0  0  0  0  0  0
    4.1229    0.3086   -0.0478 H   0  0  0  0  0  0  0  0  0  0  0  0
    2.4477   -2.9011    0.4730 H   0  0  0  0  0  0  0  0  0  0  0  0
   -1.3633   -0.9467    2.4158 H   0  0  0  0  0  0  0  0  0  0  0  0
   -4.9551    0.7706    0.8130 H   0  0  0  0  0  0  0  0  0  0  0  0
   -3.8306    1.1119   -1.3657 H   0  0  0  0  0  0  0  0  0  0  0  0
    2.3595    2.9569   -1.6547 H   0  0  0  0  0  0  0  0  0  0  0  0
  1  2  1  0
  2  3  2  0
  3  4  1  0
  4  5  1  0
  5  6  1  0
  6  7  2  0
  7  8  1  0
  8  9  1  0
  8 10  2  0
 10 11  1  0
 11 12  2  0
 12 13  1  0
  5 14  2  0
 14 15  1  0
 15 16  2  0
 15 17  1  0
 14  2  1  0
 12  6  1  0
  1 18  1  0
  1 19  1  0
  1 20  1  0
  3 21  1  0
  7 22  1  0
 10 23  1  0
 11 24  1  0
 17 25  1  0
M  END
$$$$
