Molecule_33
     RDKit          3D

 26 27  0  0  0  0  0  0  0  0999 V2000
   -3.7344    1.0997    0.8361 O   0  0  0  0  0  0  0  0  0  0  0  0
   -2.4874    1.2137    0.6946 C   0  0  0  0  0  0  0  0  0  0  0  0
   -1.6866    1.4734    1.8033 O   0  0  0  0  0  0  0  0  0  0  0  0
   -1.8688    1.0238   -0.6623 C   0  0  0  0  0  0  0  0  0  0  0  0
   -1.6279   -0.4616   -0.9687 C   0  0  0  0  0  0  0  0  0  0  0  0
   -0.5136   -1.0545   -0.0796 C   0  0  0  0  0  0  0  0  0  0  0  0
   -0.1672   -2.4341   -0.5749 C   0  0  0  0  0  0  0  0  0  0  0  0
    0.4194   -2.5863   -1.6808 O   0  0  0  0  0  0  0  0  0  0  0  0
   -0.5120   -3.5476    0.1848 O   0  0  0  0  0  0  0  0  0  0  0  0
    0.7064   -0.1482   -0.0201 C   0  0  0  0  0  0  0  0  0  0  0  0
    1.9398   -0.6244    0.4658 C   0  0  0  0  0  0  0  0  0  0  0  0
    3.0467    0.2260    0.5432 C   0  0  0  0  0  0  0  0  0  0  0  0
    4.2340   -0.2473    0.9956 F   0  0  0  0  0  0  0  0  0  0  0  0
    2.9301    1.5638    0.1600 C   0  0  0  0  0  0  0  0  0  0  0  0
    1.7022    2.0596   -0.2832 C   0  0  0  0  0  0  0  0  0  0  0  0
    0.5865    1.2187   -0.3534 C   0  0  0  0  0  0  0  0  0  0  0  0
   -0.6436    1.7513   -0.7580 O   0  0  0  0  0  0  0  0  0  0  0  0
   -2.0938    1.5852    2.7239 H   0  0  0  0  0  0  0  0  0  0  0  0
   -2.5704    1.4326   -1.4215 H   0  0  0  0  0  0  0  0  0  0  0  0
   -2.5705   -1.0366   -0.8304 H   0  0  0  0  0  0  0  0  0  0  0  0
   -1.3367   -0.5461   -2.0397 H   0  0  0  0  0  0  0  0  0  0  0  0
   -0.9072   -1.1478    0.9563 H   0  0  0  0  0  0  0  0  0  0  0  0
   -0.2914   -4.4831   -0.1351 H   0  0  0  0  0  0  0  0  0  0  0  0
    2.0466   -1.6544    0.7819 H   0  0  0  0  0  0  0  0  0  0  0  0
    3.7878    2.2214    0.2196 H   0  0  0  0  0  0  0  0  0  0  0  0
    1.6121    3.1030   -0.5574 H   0  0  0  0  0  0  0  0  0  0  0  0
  1  2  2  0
  2  3  1  0
  2  4  1  0
  4  5  1  0
  5  6  1  0
  6  7  1  0
  7  8  2  0
  7  9  1  0
  6 10  1  0
 10 11  2  0
 11 12  1  0
 12 13  1  0
 12 14  2  0
 14 15  1  0
 15 16  2  0
 16 17  1  0
 17  4  1  0
 16 10  1  0
  3 18  1  0
  4 19  1  0
  5 20  1  0
  5 21  1  0
  6 22  1  0
  9 23  1  0
 11 24  1  0
 14 25  1  0
 15 26  1  0
M  END
$$$$
