Molecule_21
     RDKit          3D

 29 30  0  0  0  0  0  0  0  0999 V2000
   -3.4178    0.4046   -0.8795 C   0  0  0  0  0  0  0  0  0  0  0  0
   -2.2317    0.9363   -0.0739 C   0  0  0  0  0  0  0  0  0  0  0  0
   -1.8158   -0.0095    1.0798 C   0  0  0  0  0  0  0  0  0  0  0  0
   -0.8537    0.7016    2.0460 C   0  0  0  0  0  0  0  0  0  0  0  0
    0.3974    0.9616    1.4100 O   0  0  0  0  0  0  0  0  0  0  0  0
    0.9969    0.0586    0.5194 C   0  0  0  0  0  0  0  0  0  0  0  0
    0.2601   -1.0570    0.0672 C   0  0  0  0  0  0  0  0  0  0  0  0
    0.8512   -1.9730   -0.8091 C   0  0  0  0  0  0  0  0  0  0  0  0
    2.1526   -1.7705   -1.2613 C   0  0  0  0  0  0  0  0  0  0  0  0
    2.8841   -0.6584   -0.8392 C   0  0  0  0  0  0  0  0  0  0  0  0
    4.1427   -0.4992   -1.3212 F   0  0  0  0  0  0  0  0  0  0  0  0
    2.3184    0.2752    0.0571 C   0  0  0  0  0  0  0  0  0  0  0  0
    3.1076    1.4571    0.5023 C   0  0  0  0  0  0  0  0  0  0  0  0
    2.5659    2.3811    1.1667 O   0  0  0  0  0  0  0  0  0  0  0  0
    4.4605    1.5627    0.1900 O   0  0  0  0  0  0  0  0  0  0  0  0
   -1.1385   -1.3045    0.5798 C   0  0  0  0  0  0  0  0  0  0  0  0
   -3.1301   -0.4910   -1.4668 H   0  0  0  0  0  0  0  0  0  0  0  0
   -3.7572    1.1850   -1.5929 H   0  0  0  0  0  0  0  0  0  0  0  0
   -4.2647    0.1518   -0.2068 H   0  0  0  0  0  0  0  0  0  0  0  0
   -2.5323    1.9188    0.3514 H   0  0  0  0  0  0  0  0  0  0  0  0
   -1.3772    1.1184   -0.7608 H   0  0  0  0  0  0  0  0  0  0  0  0
   -2.7274   -0.2869    1.6546 H   0  0  0  0  0  0  0  0  0  0  0  0
   -1.2897    1.6572    2.4069 H   0  0  0  0  0  0  0  0  0  0  0  0
   -0.6775    0.0557    2.9336 H   0  0  0  0  0  0  0  0  0  0  0  0
    0.3021   -2.8445   -1.1439 H   0  0  0  0  0  0  0  0  0  0  0  0
    2.5983   -2.4811   -1.9457 H   0  0  0  0  0  0  0  0  0  0  0  0
    5.0034    2.3641    0.4889 H   0  0  0  0  0  0  0  0  0  0  0  0
   -1.0702   -2.0221    1.4263 H   0  0  0  0  0  0  0  0  0  0  0  0
   -1.7576   -1.7917   -0.2016 H   0  0  0  0  0  0  0  0  0  0  0  0
  1  2  1  0
  2  3  1  0
  3  4  1  0
  4  5  1  0
  5  6  1  0
  6  7  2  0
  7  8  1  0
  8  9  2  0
  9 10  1  0
 10 11  1  0
 10 12  2  0
 12 13  1  0
 13 14  2  0
 13 15  1  0
  7 16  1  0
 16  3  1  0
 12  6  1  0
  1 17  1  0
  1 18  1  0
  1 19  1  0
  2 20  1  0
  2 21  1  0
  3 22  1  0
  4 23  1  0
  4 24  1  0
  8 25  1  0
  9 26  1  0
 15 27  1  0
 16 28  1  0
 16 29  1  0
M  END
$$$$
