Molecule_2
     RDKit          3D

 32 34  0  0  0  0  0  0  0  0999 V2000
   -1.7189   -2.7921    1.3890 O   0  0  0  0  0  0  0  0  0  0  0  0
   -1.8765   -2.0167    0.4072 C   0  0  0  0  0  0  0  0  0  0  0  0
   -2.1383   -2.5655   -0.8439 O   0  0  0  0  0  0  0  0  0  0  0  0
   -1.7992   -0.5413    0.5978 C   0  0  0  0  0  0  0  0  0  0  0  0
   -2.1377   -0.0012    1.8594 C   0  0  0  0  0  0  0  0  0  0  0  0
   -2.4799   -0.8061    2.8980 F   0  0  0  0  0  0  0  0  0  0  0  0
   -2.1754    1.3787    2.0563 C   0  0  0  0  0  0  0  0  0  0  0  0
   -1.9064    2.2442    1.0020 C   0  0  0  0  0  0  0  0  0  0  0  0
   -1.9957    3.5844    1.1875 F   0  0  0  0  0  0  0  0  0  0  0  0
   -1.5564    1.7359   -0.2473 C   0  0  0  0  0  0  0  0  0  0  0  0
   -1.4296    0.3463   -0.4562 C   0  0  0  0  0  0  0  0  0  0  0  0
   -0.9995   -0.1815   -1.8190 C   0  0  0  0  0  0  0  0  0  0  0  0
   -0.0807    0.6927   -2.6672 C   0  0  0  0  0  0  0  0  0  0  0  0
    0.4813   -0.5682   -2.0185 C   0  0  0  0  0  0  0  0  0  0  0  0
    1.4825   -0.3096   -0.9083 C   0  0  0  0  0  0  0  0  0  0  0  0
    1.4582   -1.1114    0.2442 C   0  0  0  0  0  0  0  0  0  0  0  0
    2.3882   -0.9165    1.2687 C   0  0  0  0  0  0  0  0  0  0  0  0
    3.3848    0.0507    1.1334 C   0  0  0  0  0  0  0  0  0  0  0  0
    3.4704    0.8026   -0.0396 C   0  0  0  0  0  0  0  0  0  0  0  0
    2.5412    0.6118   -1.0680 C   0  0  0  0  0  0  0  0  0  0  0  0
    2.7015    1.3009   -2.2261 F   0  0  0  0  0  0  0  0  0  0  0  0
   -2.1910   -3.5689   -0.9724 H   0  0  0  0  0  0  0  0  0  0  0  0
   -2.4485    1.7786    3.0246 H   0  0  0  0  0  0  0  0  0  0  0  0
   -1.3982    2.4412   -1.0506 H   0  0  0  0  0  0  0  0  0  0  0  0
   -1.7469   -0.7165   -2.4412 H   0  0  0  0  0  0  0  0  0  0  0  0
   -0.2357    0.5926   -3.7623 H   0  0  0  0  0  0  0  0  0  0  0  0
    0.2698    1.6472   -2.2277 H   0  0  0  0  0  0  0  0  0  0  0  0
    0.6760   -1.3979   -2.7303 H   0  0  0  0  0  0  0  0  0  0  0  0
    0.7364   -1.9059    0.3425 H   0  0  0  0  0  0  0  0  0  0  0  0
    2.3462   -1.5283    2.1606 H   0  0  0  0  0  0  0  0  0  0  0  0
    4.1085    0.1971    1.9248 H   0  0  0  0  0  0  0  0  0  0  0  0
    4.2696    1.5228   -0.1593 H   0  0  0  0  0  0  0  0  0  0  0  0
  1  2  2  0
  2  3  1  0
  2  4  1  0
  4  5  2  0
  5  6  1  0
  5  7  1  0
  7  8  2  0
  8  9  1  0
  8 10  1  0
 10 11  2  0
 11 12  1  0
 12 13  1  0
 13 14  1  0
 14 15  1  0
 15 16  2  0
 16 17  1  0
 17 18  2  0
 18 19  1  0
 19 20  2  0
 20 21  1  0
 11  4  1  0
 14 12  1  0
 20 15  1  0
  3 22  1  0
  7 23  1  0
 10 24  1  0
 12 25  1  0
 13 26  1  0
 13 27  1  0
 14 28  1  0
 16 29  1  0
 17 30  1  0
 18 31  1  0
 19 32  1  0
M  END
$$$$
