Molecule_38
     RDKit          3D

 23 23  0  0  0  0  0  0  0  0999 V2000
    3.7913    0.1119   -0.0067 C   0  0  0  0  0  0  0  0  0  0  0  0
    2.4834    0.6735    0.0415 O   0  0  0  0  0  0  0  0  0  0  0  0
    1.2891   -0.0643   -0.0378 C   0  0  0  0  0  0  0  0  0  0  0  0
    1.3065   -1.4643   -0.1626 C   0  0  0  0  0  0  0  0  0  0  0  0
    0.1181   -2.1845   -0.2125 C   0  0  0  0  0  0  0  0  0  0  0  0
   -1.1097   -1.5301   -0.1462 C   0  0  0  0  0  0  0  0  0  0  0  0
   -2.2326   -2.2873   -0.2022 F   0  0  0  0  0  0  0  0  0  0  0  0
   -1.1622   -0.1217   -0.0323 C   0  0  0  0  0  0  0  0  0  0  0  0
   -2.3794    0.5851    0.0068 O   0  0  0  0  0  0  0  0  0  0  0  0
   -3.6829    0.0158   -0.0456 C   0  0  0  0  0  0  0  0  0  0  0  0
    0.0480    0.6147    0.0266 C   0  0  0  0  0  0  0  0  0  0  0  0
    0.0139    2.0962    0.1572 C   0  0  0  0  0  0  0  0  0  0  0  0
    0.9570    2.8004   -0.2944 O   0  0  0  0  0  0  0  0  0  0  0  0
   -1.0592    2.7263    0.7822 O   0  0  0  0  0  0  0  0  0  0  0  0
    3.9455   -0.4150   -0.9720 H   0  0  0  0  0  0  0  0  0  0  0  0
    4.5385    0.9275    0.0751 H   0  0  0  0  0  0  0  0  0  0  0  0
    3.9375   -0.5896    0.8416 H   0  0  0  0  0  0  0  0  0  0  0  0
    2.2384   -2.0102   -0.2144 H   0  0  0  0  0  0  0  0  0  0  0  0
    0.1495   -3.2629   -0.3037 H   0  0  0  0  0  0  0  0  0  0  0  0
   -3.8418   -0.6602    0.8206 H   0  0  0  0  0  0  0  0  0  0  0  0
   -3.8267   -0.5274   -1.0031 H   0  0  0  0  0  0  0  0  0  0  0  0
   -4.4329    0.8314    0.0075 H   0  0  0  0  0  0  0  0  0  0  0  0
   -1.0893    3.7347    0.8745 H   0  0  0  0  0  0  0  0  0  0  0  0
  1  2  1  0
  2  3  1  0
  3  4  2  0
  4  5  1  0
  5  6  2  0
  6  7  1  0
  6  8  1  0
  8  9  1  0
  9 10  1  0
  8 11  2  0
 11 12  1  0
 12 13  2  0
 12 14  1  0
 11  3  1  0
  1 15  1  0
  1 16  1  0
  1 17  1  0
  4 18  1  0
  5 19  1  0
 10 20  1  0
 10 21  1  0
 10 22  1  0
 14 23  1  0
M  END
$$$$
