Molecule_14
     RDKit          3D

 27 28  0  0  0  0  0  0  0  0999 V2000
   -1.9483    2.3307    1.1602 O   0  0  0  0  0  0  0  0  0  0  0  0
   -1.6201    1.3278    0.4714 C   0  0  0  0  0  0  0  0  0  0  0  0
   -1.6110    1.4201   -0.9183 O   0  0  0  0  0  0  0  0  0  0  0  0
   -1.2915    0.0203    1.1622 C   0  0  0  0  0  0  0  0  0  0  0  0
   -2.5378   -0.8786    1.1048 C   0  0  0  0  0  0  0  0  0  0  0  0
   -2.4505   -1.6227   -0.2270 C   0  0  0  0  0  0  0  0  0  0  0  0
   -1.0085   -1.5384   -0.5810 C   0  0  0  0  0  0  0  0  0  0  0  0
   -0.5654   -2.0059   -1.6176 O   0  0  0  0  0  0  0  0  0  0  0  0
   -0.1940   -0.8196    0.4581 C   0  0  0  0  0  0  0  0  0  0  0  0
    1.0732   -0.1052   -0.0358 C   0  0  0  0  0  0  0  0  0  0  0  0
    1.4115    1.1987    0.3957 C   0  0  0  0  0  0  0  0  0  0  0  0
    2.5877    1.8179   -0.0368 C   0  0  0  0  0  0  0  0  0  0  0  0
    2.8744    3.0814    0.3633 F   0  0  0  0  0  0  0  0  0  0  0  0
    3.4812    1.1293   -0.8545 C   0  0  0  0  0  0  0  0  0  0  0  0
    3.2215   -0.1942   -1.2040 C   0  0  0  0  0  0  0  0  0  0  0  0
    2.0470   -0.8208   -0.7750 C   0  0  0  0  0  0  0  0  0  0  0  0
    1.9085   -2.1476   -1.0201 F   0  0  0  0  0  0  0  0  0  0  0  0
   -1.8438    2.2894   -1.3830 H   0  0  0  0  0  0  0  0  0  0  0  0
   -1.0053    0.2173    2.2194 H   0  0  0  0  0  0  0  0  0  0  0  0
   -3.4889   -0.3072    1.1911 H   0  0  0  0  0  0  0  0  0  0  0  0
   -2.4959   -1.6132    1.9397 H   0  0  0  0  0  0  0  0  0  0  0  0
   -3.0589   -1.1095   -1.0026 H   0  0  0  0  0  0  0  0  0  0  0  0
   -2.7731   -2.6806   -0.1201 H   0  0  0  0  0  0  0  0  0  0  0  0
    0.1493   -1.5905    1.1839 H   0  0  0  0  0  0  0  0  0  0  0  0
    0.7945    1.7426    1.0934 H   0  0  0  0  0  0  0  0  0  0  0  0
    4.3961    1.6060   -1.1822 H   0  0  0  0  0  0  0  0  0  0  0  0
    3.9480   -0.7475   -1.7853 H   0  0  0  0  0  0  0  0  0  0  0  0
  1  2  2  0
  2  3  1  0
  2  4  1  0
  4  5  1  0
  5  6  1  0
  6  7  1  0
  7  8  2  0
  7  9  1  0
  9 10  1  0
 10 11  2  0
 11 12  1  0
 12 13  1  0
 12 14  2  0
 14 15  1  0
 15 16  2  0
 16 17  1  0
  9  4  1  0
 16 10  1  0
  3 18  1  0
  4 19  1  0
  5 20  1  0
  5 21  1  0
  6 22  1  0
  6 23  1  0
  9 24  1  0
 11 25  1  0
 14 26  1  0
 15 27  1  0
M  END
$$$$
